Program Version,EnergyPlus, Version 8.9.0-eba93e8e1b, YMD=2018.09.18 17:21
! <Version>, Version ID
 Version, 8.9
! <Timesteps per Hour>, #TimeSteps, Minutes per TimeStep {minutes}
 Timesteps per Hour,  6, 10
! <System Convergence Limits>, Minimum System TimeStep {minutes}, Max HVAC Iterations, Minimum Plant Iterations, Maximum Plant Iterations
 System Convergence Limits, 1, 20, 2, 8
! <Simulation Control>, Do Zone Sizing, Do System Sizing, Do Plant Sizing, Do Design Days, Do Weather Simulation, Do HVAC Sizing Simulation
 Simulation Control, Yes, Yes, Yes, Yes, No, No
! <Output Reporting Tolerances>, Tolerance for Time Heating Setpoint Not Met, Tolerance for Zone Cooling Setpoint Not Met Time
 Output Reporting Tolerances, 1.000, 1.000, 
! <Site:GroundTemperature:BuildingSurface>,Jan{C},Feb{C},Mar{C},Apr{C},May{C},Jun{C},Jul{C},Aug{C},Sep{C},Oct{C},Nov{C},Dec{C}
 Site:GroundTemperature:BuildingSurface,  19.53,  19.50,  19.54,  19.60,  20.00,  21.64,  22.23,  22.38,  21.45,  20.12,  19.80,  19.63
! <Site:GroundTemperature:FCfactorMethod>,Jan{C},Feb{C},Mar{C},Apr{C},May{C},Jun{C},Jul{C},Aug{C},Sep{C},Oct{C},Nov{C},Dec{C}
 Site:GroundTemperature:FCfactorMethod,   4.64,   4.08,   5.08,   6.66,  10.79,  13.98,  16.13,  16.78,  15.67,  13.19,   9.89,   6.82
! <Site:GroundTemperature:Shallow>,Jan{C},Feb{C},Mar{C},Apr{C},May{C},Jun{C},Jul{C},Aug{C},Sep{C},Oct{C},Nov{C},Dec{C}
 Site:GroundTemperature:Shallow,  13.00,  13.00,  13.00,  13.00,  13.00,  13.00,  13.00,  13.00,  13.00,  13.00,  13.00,  13.00
! <Site:GroundTemperature:Deep>,Jan{C},Feb{C},Mar{C},Apr{C},May{C},Jun{C},Jul{C},Aug{C},Sep{C},Oct{C},Nov{C},Dec{C}
 Site:GroundTemperature:Deep,  16.00,  16.00,  16.00,  16.00,  16.00,  16.00,  16.00,  16.00,  16.00,  16.00,  16.00,  16.00
! <Site:GroundReflectance>,Jan{dimensionless},Feb{dimensionless},Mar{dimensionless},Apr{dimensionless},May{dimensionless},Jun{dimensionless},Jul{dimensionless},Aug{dimensionless},Sep{dimensionless},Oct{dimensionless},Nov{dimensionless},Dec{dimensionless}
 Site:GroundReflectance,  0.20,  0.20,  0.20,  0.20,  0.20,  0.20,  0.20,  0.20,  0.20,  0.20,  0.20,  0.20
! <Site:GroundReflectance:SnowModifier>, Normal, Daylighting {dimensionless}
 Site:GroundReflectance:SnowModifier,   1.000,   1.000
! <Site:GroundReflectance:Snow>,Jan{dimensionless},Feb{dimensionless},Mar{dimensionless},Apr{dimensionless},May{dimensionless},Jun{dimensionless},Jul{dimensionless},Aug{dimensionless},Sep{dimensionless},Oct{dimensionless},Nov{dimensionless},Dec{dimensionless}
 Site:GroundReflectance:Snow,  0.20,  0.20,  0.20,  0.20,  0.20,  0.20,  0.20,  0.20,  0.20,  0.20,  0.20,  0.20
! <Site:GroundReflectance:Snow:Daylighting>,Jan{dimensionless},Feb{dimensionless},Mar{dimensionless},Apr{dimensionless},May{dimensionless},Jun{dimensionless},Jul{dimensionless},Aug{dimensionless},Sep{dimensionless},Oct{dimensionless},Nov{dimensionless},Dec{dimensionless}
 Site:GroundReflectance:Snow:Daylighting,  0.20,  0.20,  0.20,  0.20,  0.20,  0.20,  0.20,  0.20,  0.20,  0.20,  0.20,  0.20
! <Environment:Weather Station>,Wind Sensor Height Above Ground {m},Wind Speed Profile Exponent {},Wind Speed Profile Boundary Layer Thickness {m},Air Temperature Sensor Height Above Ground {m},Wind Speed Modifier Coefficient-Internal,Temperature Modifier Coefficient-Internal
Environment:Weather Station,10.000,0.140,270.000,1.500,1.586,9.750E-003
! <Site:Location>, Location Name, Latitude {N+/S- Deg}, Longitude {E+/W- Deg},  Time Zone Number {GMT+/-}, Elevation {m},  Standard Pressure at Elevation {Pa}, Standard RhoAir at Elevation
Site:Location,Vancouver Intl AP BC CAN CWEC2016 WMO#=718920,49.20,-123.18,-8.00,4.30,101273,1.2037
! <Building Information>, Building Name,North Axis {deg},Terrain,  Loads Convergence Tolerance Value,Temperature Convergence Tolerance Value,  Solar Distribution,Maximum Number of Warmup Days,Minimum Number of Warmup Days
 Building Information,LargeHotel-CAN_BC_Vancouver.Intl.AP.718920_CWEC2016.epw created: 2018-09-18 17:19:42 +0000,0.000,City,4.00000E-002,0.20000,FullInteriorAndExterior,25,6
! <Inside Convection Algorithm>, Algorithm {Simple | TARP | CeilingDiffuser | AdaptiveConvectionAlgorithm}
Inside Convection Algorithm,TARP
! <Outside Convection Algorithm>, Algorithm {SimpleCombined | TARP | MoWitt | DOE-2 | AdaptiveConvectionAlgorithm}
Outside Convection Algorithm,TARP
! <Sky Radiance Distribution>, Value {Anisotropic}
Sky Radiance Distribution,Anisotropic
! <Zone Air Solution Algorithm>, Value {ThirdOrderBackwardDifference | AnalyticalSolution | EulerMethod}
 Zone Air Solution Algorithm, ThirdOrderBackwardDifference
! <Zone Air Carbon Dioxide Balance Simulation>, Simulation {Yes/No}, Carbon Dioxide Concentration
 Zone Air Carbon Dioxide Balance Simulation, No,N/A
! <Zone Air Generic Contaminant Balance Simulation>, Simulation {Yes/No}, Generic Contaminant Concentration
 Zone Air Generic Contaminant Balance Simulation, No,N/A
! <Zone Air Mass Flow Balance Simulation>, Enforce Mass Balance, Adjust Zone Mixing, Adjust Zone Infiltration {AddInfiltration | AdjustInfiltration | None}, Infiltration Zones {MixingSourceZonesOnly | AllZones}
 Zone Air Mass Flow Balance Simulation, No,N/A,N/A,N/A
! <HVACSystemRootFindingAlgorithm>, Value {RegulaFalsi | Bisection | BisectionThenRegulaFalsi | RegulaFalsiThenBisection}
 HVACSystemRootFindingAlgorithm, RegulaFalsi
! <Environment:Site Atmospheric Variation>,Wind Speed Profile Exponent {},Wind Speed Profile Boundary Layer Thickness {m},Air Temperature Gradient Coefficient {K/m}
Environment:Site Atmospheric Variation,0.330,460.000,6.500000E-003
! <Surface Geometry>,Starting Corner,Vertex Input Direction,Coordinate System,Daylight Reference Point Coordinate System,Rectangular (Simple) Surface Coordinate System
 Surface Geometry,UpperLeftCorner,Counterclockwise,RelativeCoordinateSystem,RelativeCoordinateSystem,RelativeToZoneOrigin
! <Surface Heat Transfer Algorithm>, Value {CTF - ConductionTransferFunction | EMPD - MoisturePenetrationDepthConductionTransferFunction | CondFD - ConductionFiniteDifference | HAMT - CombinedHeatAndMoistureFiniteElement} - Description,Inside Surface Max Temperature Limit{C}, Surface Convection Coefficient Lower Limit {W/m2-K}, Surface Convection Coefficient Upper Limit {W/m2-K}
Surface Heat Transfer Algorithm, CTF - ConductionTransferFunction,200,0.10,1000.0
! <Shading Summary>, Number of Fixed Detached Shades, Number of Building Detached Shades, Number of Attached Shades
 Shading Summary,0,0,0
! <Zone Summary>, Number of Zones, Number of Zone Surfaces, Number of SubSurfaces
 Zone Summary,22,213,30
! <Zone Information>,Zone Name,North Axis {deg},Origin X-Coordinate {m},Origin Y-Coordinate {m},Origin Z-Coordinate {m},Centroid X-Coordinate {m},Centroid Y-Coordinate {m},Centroid Z-Coordinate {m},Type,Zone Multiplier,Zone List Multiplier,Minimum X {m},Maximum X {m},Minimum Y {m},Maximum Y {m},Minimum Z {m},Maximum Z {m},Ceiling Height {m},Volume {m3},Zone Inside Convection Algorithm {Simple-Detailed-CeilingDiffuser-TrombeWall},Zone Outside Convection Algorithm {Simple-Detailed-Tarp-MoWitt-DOE-2-BLAST}, Floor Area {m2},Exterior Gross Wall Area {m2},Exterior Net Wall Area {m2},Exterior Window Area {m2}, Number of Surfaces, Number of SubSurfaces, Number of Shading SubSurfaces,  Part of Total Building Area
 Zone Information, SP-BANQUET_FLR_6 SYS-3 FLR-4 SCH-B HPLCMT-NORTH ZN,0.0,0.00,0.00,0.00,26.37,17.68,17.68,1,1,1,10.36,42.37,12.50,22.86,16.15,19.20,3.05,1010.89,TARP,TARP,331.66,97.55,65.34,32.21,6,1,0,Yes
 Zone Information, SP-BASEMENT SYS-4 FLR-1 SCH-E HPLCMT-NORTH ZN,0.0,0.00,0.00,0.00,41.45,11.51,-1.22,1,1,1,0.00,86.56,0.00,22.86,-2.44,0.00,2.44,4826.37,TARP,TARP,1978.83,0.00,0.00,0.00,13,0,0,Yes
 Zone Information, SP-CAFE_FLR_1 SYS-6 FLR-2 SCH-C HPLCMT-SOUTH ZN,0.0,0.00,0.00,0.00,70.26,2.90,1.98,1,1,1,53.95,86.56,0.00,5.79,0.00,3.96,3.96,748.35,TARP,TARP,188.86,152.17,86.55,65.62,7,1,0,Yes
 Zone Information, SP-CORRIDOR_FLR_3 SYS-1 FLR-3 SCH-E HPLCMT-SOUTH ZN,0.0,0.00,0.00,0.00,43.28,14.33,8.53,1,4,1,4.57,81.99,5.79,22.86,7.01,10.06,3.05,1186.91,TARP,TARP,389.40,48.31,32.37,15.94,22,4,0,Yes
 Zone Information, SP-CORRIDOR_FLR_6 SYS-3 FLR-4 SCH-E HPLCMT-SOUTH ZN,0.0,0.00,0.00,0.00,41.51,13.35,17.68,1,1,1,4.57,81.99,5.79,22.86,16.15,19.20,3.05,1256.16,TARP,TARP,412.12,85.47,57.25,28.22,18,3,0,Yes
 Zone Information, SP-DINING_FLR_6 SYS-3 FLR-4 SCH-B HPLCMT-NORTH ZN,0.0,0.00,0.00,0.00,63.55,17.68,17.68,1,1,1,47.55,79.55,12.50,22.86,16.15,19.20,3.05,1010.89,TARP,TARP,331.66,97.55,65.34,32.21,6,1,0,Yes
 Zone Information, SP-KITCHEN_FLR_6 SYS-3 FLR-4 SCH-B HPLCMT-EAST ZN,0.0,0.00,0.00,0.00,82.99,14.11,17.68,1,1,1,79.55,86.56,5.79,22.86,16.15,19.20,3.05,314.87,TARP,TARP,103.30,87.33,60.95,26.38,8,3,0,Yes
 Zone Information, SP-LAUNDRY_FLR_1 SYS-6 FLR-2 SCH-C HPLCMT-EAST ZN,0.0,0.00,0.00,0.00,84.28,14.33,1.98,1,1,1,81.99,86.56,5.79,22.86,0.00,3.96,3.96,309.22,TARP,TARP,78.04,85.75,85.75,0.00,6,0,0,Yes
 Zone Information, SP-LOBBY_FLR_1 SYS-6 FLR-2 SCH-H HPLCMT-NORTH ZN,0.0,0.00,0.00,0.00,38.29,12.45,1.98,1,1,1,0.00,81.99,0.00,22.86,0.00,3.96,3.96,5183.56,TARP,TARP,1308.19,434.79,349.55,85.24,18,1,0,Yes
 Zone Information, SP-MECH_FLR_1 SYS-6 FLR-2 SCH-E HPLCMT-NORTH ZN,0.0,0.00,0.00,0.00,61.87,17.68,1.98,1,1,1,53.95,69.80,12.50,22.86,0.00,3.96,3.96,650.80,TARP,TARP,164.24,62.80,62.80,0.00,6,0,0,Yes
 Zone Information, SP-RETAIL_1_FLR_1 SYS-6 FLR-2 SCH-C HPLCMT-SOUTH ZN,0.0,0.00,0.00,0.00,5.79,2.90,1.98,1,1,1,0.00,11.58,0.00,5.79,0.00,3.96,3.96,265.76,TARP,TARP,67.07,68.84,45.54,23.30,6,1,0,Yes
 Zone Information, SP-RETAIL_2_FLR_1 SYS-6 FLR-2 SCH-C HPLCMT-WEST ZN,0.0,0.00,0.00,0.00,5.79,9.14,1.98,1,1,1,0.00,11.58,5.79,12.50,0.00,3.96,3.96,307.76,TARP,TARP,77.67,26.57,26.57,0.00,6,0,0,Yes
 Zone Information, SP-ROOM_1_FLR_3 SYS-1 FLR-3 SCH-F HPLCMT-WEST ZN,0.0,0.00,0.00,0.00,2.29,10.06,8.53,1,4,1,0.00,4.57,5.79,14.33,7.01,10.06,3.05,118.94,TARP,TARP,39.02,39.95,26.77,13.18,6,2,0,Yes
 Zone Information, SP-ROOM_1_FLR_6 SYS-1 FLR-4 SCH-F HPLCMT-WEST ZN,0.0,0.00,0.00,0.00,2.29,10.06,17.68,1,1,1,0.00,4.57,5.79,14.33,16.15,19.20,3.05,118.94,TARP,TARP,39.02,39.95,26.76,13.19,7,2,0,Yes
 Zone Information, SP-ROOM_2_FLR_3 SYS-1 FLR-3 SCH-F HPLCMT-WEST ZN,0.0,0.00,0.00,0.00,2.29,18.59,8.53,1,4,1,0.00,4.57,14.33,22.86,7.01,10.06,3.05,118.93,TARP,TARP,39.02,39.95,26.77,13.18,6,2,0,Yes
 Zone Information, SP-ROOM_2_FLR_6 SYS-1 FLR-4 SCH-F HPLCMT-WEST ZN,0.0,0.00,0.00,0.00,2.29,18.59,17.68,1,1,1,0.00,4.57,14.33,22.86,16.15,19.20,3.05,118.93,TARP,TARP,39.02,39.95,26.76,13.19,6,2,0,Yes
 Zone Information, SP-ROOM_3_MULT19_FLR_3 SYS-1 FLR-3 SCH-F HPLCMT-SOUTH ZN,0.0,0.00,0.00,0.00,8.53,9.14,8.53,1,76,1,6.71,10.36,5.79,12.50,7.01,10.06,3.05,74.75,TARP,TARP,24.52,11.15,7.47,3.68,6,1,0,Yes
 Zone Information, SP-ROOM_3_MULT9_FLR_6 SYS-1 FLR-4 SCH-F HPLCMT-SOUTH ZN,0.0,0.00,0.00,0.00,7.93,7.62,17.68,1,9,1,4.57,11.28,5.79,9.45,16.15,19.20,3.05,74.77,TARP,TARP,24.53,20.44,13.69,6.75,6,1,0,Yes
 Zone Information, SP-ROOM_4_MULT19_FLR_3 SYS-1 FLR-3 SCH-F HPLCMT-NORTH ZN,0.0,0.00,0.00,0.00,12.19,19.51,8.53,1,76,1,10.36,14.02,16.15,22.86,7.01,10.06,3.05,74.77,TARP,TARP,24.53,11.15,7.47,3.68,6,1,0,Yes
 Zone Information, SP-ROOM_5_FLR_3 SYS-1 FLR-3 SCH-F HPLCMT-EAST ZN,0.0,0.00,0.00,0.00,84.28,10.06,8.53,1,4,1,81.99,86.56,5.79,14.33,7.01,10.06,3.05,118.94,TARP,TARP,39.02,39.95,26.77,13.18,6,2,0,Yes
 Zone Information, SP-ROOM_6_FLR_3 SYS-1 FLR-3 SCH-F HPLCMT-EAST ZN,0.0,0.00,0.00,0.00,84.28,18.59,8.53,1,4,1,81.99,86.56,14.33,22.86,7.01,10.06,3.05,118.93,TARP,TARP,39.02,39.95,26.77,13.18,6,2,0,Yes
 Zone Information, SP-STORAGE_FLR_1 SYS-4 FLR-2 SCH-E HPLCMT-NORTH ZN,0.0,0.00,0.00,0.00,74.37,17.68,1.98,1,1,1,69.80,78.94,12.50,22.86,0.00,3.96,3.96,375.47,TARP,TARP,94.76,36.23,36.23,0.00,6,0,0,Yes
! <Zone Internal Gains Nominal>,Zone Name, Floor Area {m2},# Occupants,Area per Occupant {m2/person},Occupant per Area {person/m2},Interior Lighting {W/m2},Electric Load {W/m2},Gas Load {W/m2},Other Load {W/m2},Hot Water Eq {W/m2},Steam Equipment {W/m2},Sum Loads per Area {W/m2},Outdoor Controlled Baseboard Heat
 Zone Internal Gains Nominal, SP-BANQUET_FLR_6 SYS-3 FLR-4 SCH-B HPLCMT-NORTH ZN,331.66,33.2,9.996,0.100,7.003,1.000,0.000,0.000,0.000,0.000,8.003,No
 Zone Internal Gains Nominal, SP-BASEMENT SYS-4 FLR-1 SCH-E HPLCMT-NORTH ZN,1978.83,19.8,99.964,1.000E-002,6.802,0.000,0.000,0.000,0.000,0.000,6.802,No
 Zone Internal Gains Nominal, SP-CAFE_FLR_1 SYS-6 FLR-2 SCH-C HPLCMT-SOUTH ZN,188.86,9.4,19.993,5.002E-002,11.904,1.000,0.000,0.000,0.000,0.000,12.905,No
 Zone Internal Gains Nominal, SP-CORRIDOR_FLR_3 SYS-1 FLR-3 SCH-E HPLCMT-SOUTH ZN,389.40,3.9,99.964,1.000E-002,10.704,0.000,0.000,0.000,0.000,0.000,10.704,No
 Zone Internal Gains Nominal, SP-CORRIDOR_FLR_6 SYS-3 FLR-4 SCH-E HPLCMT-SOUTH ZN,412.12,4.1,99.964,1.000E-002,10.704,0.000,0.000,0.000,0.000,0.000,10.704,No
 Zone Internal Gains Nominal, SP-DINING_FLR_6 SYS-3 FLR-4 SCH-B HPLCMT-NORTH ZN,331.66,33.2,9.996,0.100,7.003,1.000,0.000,0.000,0.000,0.000,8.003,No
 Zone Internal Gains Nominal, SP-KITCHEN_FLR_6 SYS-3 FLR-4 SCH-B HPLCMT-EAST ZN,103.30,5.2,19.993,5.002E-002,13.105,10.004,0.000,0.000,0.000,0.000,23.108,No
 Zone Internal Gains Nominal, SP-LAUNDRY_FLR_1 SYS-6 FLR-2 SCH-C HPLCMT-EAST ZN,78.04,3.9,19.993,5.002E-002,6.502,20.007,0.000,0.000,0.000,0.000,26.510,No
 Zone Internal Gains Nominal, SP-LOBBY_FLR_1 SYS-6 FLR-2 SCH-H HPLCMT-NORTH ZN,1308.19,130.9,9.996,0.100,11.504,2.501,0.000,0.000,0.000,0.000,14.005,No
 Zone Internal Gains Nominal, SP-MECH_FLR_1 SYS-6 FLR-2 SCH-E HPLCMT-NORTH ZN,164.24,0.8,199.927,5.002E-003,4.602,1.000,0.000,0.000,0.000,0.000,5.602,No
 Zone Internal Gains Nominal, SP-RETAIL_1_FLR_1 SYS-6 FLR-2 SCH-C HPLCMT-SOUTH ZN,67.07,2.2,29.989,3.335E-002,15.506,2.501,0.000,0.000,0.000,0.000,18.007,No
 Zone Internal Gains Nominal, SP-RETAIL_2_FLR_1 SYS-6 FLR-2 SCH-C HPLCMT-WEST ZN,77.67,2.6,29.989,3.335E-002,15.506,2.501,0.000,0.000,0.000,0.000,18.007,No
 Zone Internal Gains Nominal, SP-ROOM_1_FLR_3 SYS-1 FLR-3 SCH-F HPLCMT-WEST ZN,39.02,1.6,24.991,4.001E-002,5.102,2.501,0.000,0.000,0.000,0.000,7.603,No
 Zone Internal Gains Nominal, SP-ROOM_1_FLR_6 SYS-1 FLR-4 SCH-F HPLCMT-WEST ZN,39.02,1.6,24.991,4.001E-002,5.102,2.501,0.000,0.000,0.000,0.000,7.603,No
 Zone Internal Gains Nominal, SP-ROOM_2_FLR_3 SYS-1 FLR-3 SCH-F HPLCMT-WEST ZN,39.02,1.6,24.991,4.001E-002,5.102,2.501,0.000,0.000,0.000,0.000,7.603,No
 Zone Internal Gains Nominal, SP-ROOM_2_FLR_6 SYS-1 FLR-4 SCH-F HPLCMT-WEST ZN,39.02,1.6,24.991,4.001E-002,5.102,2.501,0.000,0.000,0.000,0.000,7.603,No
 Zone Internal Gains Nominal, SP-ROOM_3_MULT19_FLR_3 SYS-1 FLR-3 SCH-F HPLCMT-SOUTH ZN,24.52,1.0,24.991,4.001E-002,5.102,2.501,0.000,0.000,0.000,0.000,7.603,No
 Zone Internal Gains Nominal, SP-ROOM_3_MULT9_FLR_6 SYS-1 FLR-4 SCH-F HPLCMT-SOUTH ZN,24.53,1.0,24.991,4.001E-002,5.102,2.501,0.000,0.000,0.000,0.000,7.603,No
 Zone Internal Gains Nominal, SP-ROOM_4_MULT19_FLR_3 SYS-1 FLR-3 SCH-F HPLCMT-NORTH ZN,24.53,1.0,24.991,4.001E-002,5.102,2.501,0.000,0.000,0.000,0.000,7.603,No
 Zone Internal Gains Nominal, SP-ROOM_5_FLR_3 SYS-1 FLR-3 SCH-F HPLCMT-EAST ZN,39.02,1.6,24.991,4.001E-002,5.102,2.501,0.000,0.000,0.000,0.000,7.603,No
 Zone Internal Gains Nominal, SP-ROOM_6_FLR_3 SYS-1 FLR-3 SCH-F HPLCMT-EAST ZN,39.02,1.6,24.991,4.001E-002,5.102,2.501,0.000,0.000,0.000,0.000,7.603,No
 Zone Internal Gains Nominal, SP-STORAGE_FLR_1 SYS-4 FLR-2 SCH-E HPLCMT-NORTH ZN,94.76,0.9,99.964,1.000E-002,6.802,0.000,0.000,0.000,0.000,0.000,6.802,No
! <People Internal Gains Nominal>,Name,Schedule Name,Zone Name,Zone Floor Area {m2},# Zone Occupants,Number of People {},People/Floor Area {person/m2},Floor Area per person {m2/person},Fraction Radiant,Fraction Convected,Sensible Fraction Calculation,Activity level,ASHRAE 55 Warnings,Carbon Dioxide Generation Rate,Nominal Minimum Number of People,Nominal Maximum Number of People
 People Internal Gains Nominal, SP-CORRIDOR_FLR_3 SYS-1 FLR-3 SCH-E HPLCMT-SOUTH ZN SPACE FUNCTION CORRIDOR/TRANSITION AREA - HOSPITAL-SCH-E PEOPLE,NECB-E-OCCUPANCY,SP-CORRIDOR_FLR_3 SYS-1 FLR-3 SCH-E HPLCMT-SOUTH ZN,389.40,3.9,3.9,1.000E-002,99.964,0.300,0.700,AutoCalculate,NECB-ACTIVITY,No,3.8200E-008,0,4
 People Internal Gains Nominal, SP-CORRIDOR_FLR_6 SYS-3 FLR-4 SCH-E HPLCMT-SOUTH ZN SPACE FUNCTION CORRIDOR/TRANSITION AREA - HOSPITAL-SCH-E PEOPLE,NECB-E-OCCUPANCY,SP-CORRIDOR_FLR_6 SYS-3 FLR-4 SCH-E HPLCMT-SOUTH ZN,412.12,4.1,4.1,1.000E-002,99.964,0.300,0.700,AutoCalculate,NECB-ACTIVITY,No,3.8200E-008,0,4
 People Internal Gains Nominal, SP-BANQUET_FLR_6 SYS-3 FLR-4 SCH-B HPLCMT-NORTH ZN SPACE FUNCTION DINING AREA - OTHER PEOPLE,NECB-B-OCCUPANCY,SP-BANQUET_FLR_6 SYS-3 FLR-4 SCH-B HPLCMT-NORTH ZN,331.66,33.2,33.2,0.100,9.996,0.300,0.700,AutoCalculate,NECB-ACTIVITY,No,3.8200E-008,0,30
 People Internal Gains Nominal, SP-DINING_FLR_6 SYS-3 FLR-4 SCH-B HPLCMT-NORTH ZN SPACE FUNCTION DINING AREA - OTHER PEOPLE,NECB-B-OCCUPANCY,SP-DINING_FLR_6 SYS-3 FLR-4 SCH-B HPLCMT-NORTH ZN,331.66,33.2,33.2,0.100,9.996,0.300,0.700,AutoCalculate,NECB-ACTIVITY,No,3.8200E-008,0,30
 People Internal Gains Nominal, SP-MECH_FLR_1 SYS-6 FLR-2 SCH-E HPLCMT-NORTH ZN SPACE FUNCTION ELECTRICAL/MECHANICAL ROOM-SCH-E PEOPLE,NECB-E-OCCUPANCY,SP-MECH_FLR_1 SYS-6 FLR-2 SCH-E HPLCMT-NORTH ZN,164.24,0.8,0.8,5.002E-003,199.927,0.300,0.700,AutoCalculate,NECB-ACTIVITY,No,3.8200E-008,0,1
 People Internal Gains Nominal, SP-KITCHEN_FLR_6 SYS-3 FLR-4 SCH-B HPLCMT-EAST ZN SPACE FUNCTION FOOD PREPARATION AREA PEOPLE,NECB-B-OCCUPANCY,SP-KITCHEN_FLR_6 SYS-3 FLR-4 SCH-B HPLCMT-EAST ZN,103.30,5.2,5.2,5.002E-002,19.993,0.300,0.700,AutoCalculate,NECB-ACTIVITY,No,3.8200E-008,0,5
 People Internal Gains Nominal, SP-ROOM_1_FLR_3 SYS-1 FLR-3 SCH-F HPLCMT-WEST ZN SPACE FUNCTION GUEST ROOM PEOPLE,NECB-F-OCCUPANCY,SP-ROOM_1_FLR_3 SYS-1 FLR-3 SCH-F HPLCMT-WEST ZN,39.02,1.6,1.6,4.001E-002,24.991,0.300,0.700,AutoCalculate,NECB-ACTIVITY,No,3.8200E-008,0,1
 People Internal Gains Nominal, SP-ROOM_1_FLR_6 SYS-1 FLR-4 SCH-F HPLCMT-WEST ZN SPACE FUNCTION GUEST ROOM PEOPLE,NECB-F-OCCUPANCY,SP-ROOM_1_FLR_6 SYS-1 FLR-4 SCH-F HPLCMT-WEST ZN,39.02,1.6,1.6,4.001E-002,24.991,0.300,0.700,AutoCalculate,NECB-ACTIVITY,No,3.8200E-008,0,1
 People Internal Gains Nominal, SP-ROOM_2_FLR_3 SYS-1 FLR-3 SCH-F HPLCMT-WEST ZN SPACE FUNCTION GUEST ROOM PEOPLE,NECB-F-OCCUPANCY,SP-ROOM_2_FLR_3 SYS-1 FLR-3 SCH-F HPLCMT-WEST ZN,39.02,1.6,1.6,4.001E-002,24.991,0.300,0.700,AutoCalculate,NECB-ACTIVITY,No,3.8200E-008,0,1
 People Internal Gains Nominal, SP-ROOM_2_FLR_6 SYS-1 FLR-4 SCH-F HPLCMT-WEST ZN SPACE FUNCTION GUEST ROOM PEOPLE,NECB-F-OCCUPANCY,SP-ROOM_2_FLR_6 SYS-1 FLR-4 SCH-F HPLCMT-WEST ZN,39.02,1.6,1.6,4.001E-002,24.991,0.300,0.700,AutoCalculate,NECB-ACTIVITY,No,3.8200E-008,0,1
 People Internal Gains Nominal, SP-ROOM_3_MULT19_FLR_3 SYS-1 FLR-3 SCH-F HPLCMT-SOUTH ZN SPACE FUNCTION GUEST ROOM PEOPLE,NECB-F-OCCUPANCY,SP-ROOM_3_MULT19_FLR_3 SYS-1 FLR-3 SCH-F HPLCMT-SOUTH ZN,24.52,1.0,1.0,4.001E-002,24.991,0.300,0.700,AutoCalculate,NECB-ACTIVITY,No,3.8200E-008,0,1
 People Internal Gains Nominal, SP-ROOM_3_MULT9_FLR_6 SYS-1 FLR-4 SCH-F HPLCMT-SOUTH ZN SPACE FUNCTION GUEST ROOM PEOPLE,NECB-F-OCCUPANCY,SP-ROOM_3_MULT9_FLR_6 SYS-1 FLR-4 SCH-F HPLCMT-SOUTH ZN,24.53,1.0,1.0,4.001E-002,24.991,0.300,0.700,AutoCalculate,NECB-ACTIVITY,No,3.8200E-008,0,1
 People Internal Gains Nominal, SP-ROOM_4_MULT19_FLR_3 SYS-1 FLR-3 SCH-F HPLCMT-NORTH ZN SPACE FUNCTION GUEST ROOM PEOPLE,NECB-F-OCCUPANCY,SP-ROOM_4_MULT19_FLR_3 SYS-1 FLR-3 SCH-F HPLCMT-NORTH ZN,24.53,1.0,1.0,4.001E-002,24.991,0.300,0.700,AutoCalculate,NECB-ACTIVITY,No,3.8200E-008,0,1
 People Internal Gains Nominal, SP-ROOM_5_FLR_3 SYS-1 FLR-3 SCH-F HPLCMT-EAST ZN SPACE FUNCTION GUEST ROOM PEOPLE,NECB-F-OCCUPANCY,SP-ROOM_5_FLR_3 SYS-1 FLR-3 SCH-F HPLCMT-EAST ZN,39.02,1.6,1.6,4.001E-002,24.991,0.300,0.700,AutoCalculate,NECB-ACTIVITY,No,3.8200E-008,0,1
 People Internal Gains Nominal, SP-ROOM_6_FLR_3 SYS-1 FLR-3 SCH-F HPLCMT-EAST ZN SPACE FUNCTION GUEST ROOM PEOPLE,NECB-F-OCCUPANCY,SP-ROOM_6_FLR_3 SYS-1 FLR-3 SCH-F HPLCMT-EAST ZN,39.02,1.6,1.6,4.001E-002,24.991,0.300,0.700,AutoCalculate,NECB-ACTIVITY,No,3.8200E-008,0,1
 People Internal Gains Nominal, SP-LAUNDRY_FLR_1 SYS-6 FLR-2 SCH-C HPLCMT-EAST ZN SPACE FUNCTION LAUNDRY/WASHING AREA PEOPLE,NECB-C-OCCUPANCY,SP-LAUNDRY_FLR_1 SYS-6 FLR-2 SCH-C HPLCMT-EAST ZN,78.04,3.9,3.9,5.002E-002,19.993,0.300,0.700,AutoCalculate,NECB-ACTIVITY,No,3.8200E-008,0,4
 People Internal Gains Nominal, SP-LOBBY_FLR_1 SYS-6 FLR-2 SCH-H HPLCMT-NORTH ZN SPACE FUNCTION LOBBY - HOTEL PEOPLE,NECB-H-OCCUPANCY,SP-LOBBY_FLR_1 SYS-6 FLR-2 SCH-H HPLCMT-NORTH ZN,1308.19,130.9,130.9,0.100,9.996,0.300,0.700,AutoCalculate,NECB-ACTIVITY,No,3.8200E-008,118,118
 People Internal Gains Nominal, SP-CAFE_FLR_1 SYS-6 FLR-2 SCH-C HPLCMT-SOUTH ZN SPACE FUNCTION RETAIL FACILITY MALL CONCOURSE PEOPLE,NECB-C-OCCUPANCY,SP-CAFE_FLR_1 SYS-6 FLR-2 SCH-C HPLCMT-SOUTH ZN,188.86,9.4,9.4,5.002E-002,19.993,0.300,0.700,AutoCalculate,NECB-ACTIVITY,No,3.8200E-008,0,9
 People Internal Gains Nominal, SP-RETAIL_1_FLR_1 SYS-6 FLR-2 SCH-C HPLCMT-SOUTH ZN SPACE FUNCTION SALES AREA PEOPLE,NECB-C-OCCUPANCY,SP-RETAIL_1_FLR_1 SYS-6 FLR-2 SCH-C HPLCMT-SOUTH ZN,67.07,2.2,2.2,3.335E-002,29.989,0.300,0.700,AutoCalculate,NECB-ACTIVITY,No,3.8200E-008,0,2
 People Internal Gains Nominal, SP-RETAIL_2_FLR_1 SYS-6 FLR-2 SCH-C HPLCMT-WEST ZN SPACE FUNCTION SALES AREA PEOPLE,NECB-C-OCCUPANCY,SP-RETAIL_2_FLR_1 SYS-6 FLR-2 SCH-C HPLCMT-WEST ZN,77.67,2.6,2.6,3.335E-002,29.989,0.300,0.700,AutoCalculate,NECB-ACTIVITY,No,3.8200E-008,0,2
 People Internal Gains Nominal, SP-BASEMENT SYS-4 FLR-1 SCH-E HPLCMT-NORTH ZN SPACE FUNCTION STORAGE ROOM <= 5 M2 <= 100 M2-SCH-E PEOPLE,NECB-E-OCCUPANCY,SP-BASEMENT SYS-4 FLR-1 SCH-E HPLCMT-NORTH ZN,1978.83,19.8,19.8,1.000E-002,99.964,0.300,0.700,AutoCalculate,NECB-ACTIVITY,No,3.8200E-008,0,18
 People Internal Gains Nominal, SP-STORAGE_FLR_1 SYS-4 FLR-2 SCH-E HPLCMT-NORTH ZN SPACE FUNCTION STORAGE ROOM <= 5 M2 <= 100 M2-SCH-E PEOPLE,NECB-E-OCCUPANCY,SP-STORAGE_FLR_1 SYS-4 FLR-2 SCH-E HPLCMT-NORTH ZN,94.76,0.9,0.9,1.000E-002,99.964,0.300,0.700,AutoCalculate,NECB-ACTIVITY,No,3.8200E-008,0,1
! <Lights Internal Gains Nominal>,Name,Schedule Name,Zone Name,Zone Floor Area {m2},# Zone Occupants,Lighting Level {W},Lights/Floor Area {W/m2},Lights per person {W/person},Fraction Return Air,Fraction Radiant,Fraction Short Wave,Fraction Convected,Fraction Replaceable,End-Use Category,Nominal Minimum Lighting Level {W},Nominal Maximum Lighting Level {W}
 Lights Internal Gains Nominal, SP-CORRIDOR_FLR_3 SYS-1 FLR-3 SCH-E HPLCMT-SOUTH ZN SPACE FUNCTION CORRIDOR/TRANSITION AREA - HOSPITAL-SCH-E LIGHTS,NECB-E-OCCUPANCY-NECB-E-LIGHTING-0.0-0.0-0.67-LIGHT RULESET,SP-CORRIDOR_FLR_3 SYS-1 FLR-3 SCH-E HPLCMT-SOUTH ZN,389.40,3.9,4168.144,10.704,1070.000,0.000,0.500,0.200,0.300,1.000,General,208.407,3751.330
 Lights Internal Gains Nominal, SP-CORRIDOR_FLR_6 SYS-3 FLR-4 SCH-E HPLCMT-SOUTH ZN SPACE FUNCTION CORRIDOR/TRANSITION AREA - HOSPITAL-SCH-E LIGHTS,NECB-E-OCCUPANCY-NECB-E-LIGHTING-0.0-0.0-0.67-LIGHT RULESET,SP-CORRIDOR_FLR_6 SYS-3 FLR-4 SCH-E HPLCMT-SOUTH ZN,412.12,4.1,4411.337,10.704,1070.000,0.000,0.500,0.200,0.300,1.000,General,220.567,3970.203
 Lights Internal Gains Nominal, SP-BANQUET_FLR_6 SYS-3 FLR-4 SCH-B HPLCMT-NORTH ZN SPACE FUNCTION DINING AREA - OTHER LIGHTS,NECB-B-LIGHTING,SP-BANQUET_FLR_6 SYS-3 FLR-4 SCH-B HPLCMT-NORTH ZN,331.66,33.2,2322.446,7.003,70.000,0.000,0.500,0.200,0.300,1.000,General,232.245,2090.201
 Lights Internal Gains Nominal, SP-DINING_FLR_6 SYS-3 FLR-4 SCH-B HPLCMT-NORTH ZN SPACE FUNCTION DINING AREA - OTHER LIGHTS,NECB-B-LIGHTING,SP-DINING_FLR_6 SYS-3 FLR-4 SCH-B HPLCMT-NORTH ZN,331.66,33.2,2322.446,7.003,70.000,0.000,0.500,0.200,0.300,1.000,General,232.245,2090.201
 Lights Internal Gains Nominal, SP-MECH_FLR_1 SYS-6 FLR-2 SCH-E HPLCMT-NORTH ZN SPACE FUNCTION ELECTRICAL/MECHANICAL ROOM-SCH-E LIGHTS,NECB-E-LIGHTING,SP-MECH_FLR_1 SYS-6 FLR-2 SCH-E HPLCMT-NORTH ZN,164.24,0.8,755.793,4.602,920.000,0.000,0.500,0.200,0.300,1.000,General,37.790,680.214
 Lights Internal Gains Nominal, SP-KITCHEN_FLR_6 SYS-3 FLR-4 SCH-B HPLCMT-EAST ZN SPACE FUNCTION FOOD PREPARATION AREA LIGHTS,NECB-B-OCCUPANCY-NECB-B-LIGHTING-0.0-0.0-0.67-LIGHT RULESET,SP-KITCHEN_FLR_6 SYS-3 FLR-4 SCH-B HPLCMT-EAST ZN,103.30,5.2,1353.780,13.105,262.000,0.000,0.500,0.200,0.300,1.000,General,135.378,1218.402
 Lights Internal Gains Nominal, SP-ROOM_1_FLR_3 SYS-1 FLR-3 SCH-F HPLCMT-WEST ZN SPACE FUNCTION GUEST ROOM LIGHTS,NECB-F-LIGHTING,SP-ROOM_1_FLR_3 SYS-1 FLR-3 SCH-F HPLCMT-WEST ZN,39.02,1.6,199.085,5.102,127.500,0.000,0.500,0.200,0.300,1.000,General,13.936,125.423
 Lights Internal Gains Nominal, SP-ROOM_1_FLR_6 SYS-1 FLR-4 SCH-F HPLCMT-WEST ZN SPACE FUNCTION GUEST ROOM LIGHTS,NECB-F-LIGHTING,SP-ROOM_1_FLR_6 SYS-1 FLR-4 SCH-F HPLCMT-WEST ZN,39.02,1.6,199.085,5.102,127.500,0.000,0.500,0.200,0.300,1.000,General,13.936,125.423
 Lights Internal Gains Nominal, SP-ROOM_2_FLR_3 SYS-1 FLR-3 SCH-F HPLCMT-WEST ZN SPACE FUNCTION GUEST ROOM LIGHTS,NECB-F-LIGHTING,SP-ROOM_2_FLR_3 SYS-1 FLR-3 SCH-F HPLCMT-WEST ZN,39.02,1.6,199.061,5.102,127.500,0.000,0.500,0.200,0.300,1.000,General,13.934,125.409
 Lights Internal Gains Nominal, SP-ROOM_2_FLR_6 SYS-1 FLR-4 SCH-F HPLCMT-WEST ZN SPACE FUNCTION GUEST ROOM LIGHTS,NECB-F-LIGHTING,SP-ROOM_2_FLR_6 SYS-1 FLR-4 SCH-F HPLCMT-WEST ZN,39.02,1.6,199.061,5.102,127.500,0.000,0.500,0.200,0.300,1.000,General,13.934,125.409
 Lights Internal Gains Nominal, SP-ROOM_3_MULT19_FLR_3 SYS-1 FLR-3 SCH-F HPLCMT-SOUTH ZN SPACE FUNCTION GUEST ROOM LIGHTS,NECB-F-LIGHTING,SP-ROOM_3_MULT19_FLR_3 SYS-1 FLR-3 SCH-F HPLCMT-SOUTH ZN,24.52,1.0,125.117,5.102,127.500,0.000,0.500,0.200,0.300,1.000,General,8.758,78.824
 Lights Internal Gains Nominal, SP-ROOM_3_MULT9_FLR_6 SYS-1 FLR-4 SCH-F HPLCMT-SOUTH ZN SPACE FUNCTION GUEST ROOM LIGHTS,NECB-F-LIGHTING,SP-ROOM_3_MULT9_FLR_6 SYS-1 FLR-4 SCH-F HPLCMT-SOUTH ZN,24.53,1.0,125.151,5.102,127.500,0.000,0.500,0.200,0.300,1.000,General,8.761,78.845
 Lights Internal Gains Nominal, SP-ROOM_4_MULT19_FLR_3 SYS-1 FLR-3 SCH-F HPLCMT-NORTH ZN SPACE FUNCTION GUEST ROOM LIGHTS,NECB-F-LIGHTING,SP-ROOM_4_MULT19_FLR_3 SYS-1 FLR-3 SCH-F HPLCMT-NORTH ZN,24.53,1.0,125.151,5.102,127.500,0.000,0.500,0.200,0.300,1.000,General,8.761,78.845
 Lights Internal Gains Nominal, SP-ROOM_5_FLR_3 SYS-1 FLR-3 SCH-F HPLCMT-EAST ZN SPACE FUNCTION GUEST ROOM LIGHTS,NECB-F-LIGHTING,SP-ROOM_5_FLR_3 SYS-1 FLR-3 SCH-F HPLCMT-EAST ZN,39.02,1.6,199.085,5.102,127.500,0.000,0.500,0.200,0.300,1.000,General,13.936,125.423
 Lights Internal Gains Nominal, SP-ROOM_6_FLR_3 SYS-1 FLR-3 SCH-F HPLCMT-EAST ZN SPACE FUNCTION GUEST ROOM LIGHTS,NECB-F-LIGHTING,SP-ROOM_6_FLR_3 SYS-1 FLR-3 SCH-F HPLCMT-EAST ZN,39.02,1.6,199.061,5.102,127.500,0.000,0.500,0.200,0.300,1.000,General,13.934,125.409
 Lights Internal Gains Nominal, SP-LAUNDRY_FLR_1 SYS-6 FLR-2 SCH-C HPLCMT-EAST ZN SPACE FUNCTION LAUNDRY/WASHING AREA LIGHTS,NECB-C-LIGHTING,SP-LAUNDRY_FLR_1 SYS-6 FLR-2 SCH-C HPLCMT-EAST ZN,78.04,3.9,507.441,6.502,130.000,0.000,0.500,0.200,0.300,1.000,General,25.372,456.697
 Lights Internal Gains Nominal, SP-LOBBY_FLR_1 SYS-6 FLR-2 SCH-H HPLCMT-NORTH ZN SPACE FUNCTION LOBBY - HOTEL LIGHTS,NECB-H-OCCUPANCY-NECB-H-LIGHTING-0.0-0.0-0.67-LIGHT RULESET,SP-LOBBY_FLR_1 SYS-6 FLR-2 SCH-H HPLCMT-NORTH ZN,1308.19,130.9,15049.608,11.504,115.000,0.000,0.500,0.200,0.300,1.000,General,13544.647,13544.647
 Lights Internal Gains Nominal, SP-CAFE_FLR_1 SYS-6 FLR-2 SCH-C HPLCMT-SOUTH ZN SPACE FUNCTION RETAIL FACILITY MALL CONCOURSE LIGHTS,NECB-C-OCCUPANCY-NECB-C-LIGHTING-0.0-0.0-0.67-LIGHT RULESET,SP-CAFE_FLR_1 SYS-6 FLR-2 SCH-C HPLCMT-SOUTH ZN,188.86,9.4,2248.273,11.904,238.000,0.000,0.500,0.200,0.300,1.000,General,112.414,2023.446
 Lights Internal Gains Nominal, SP-RETAIL_1_FLR_1 SYS-6 FLR-2 SCH-C HPLCMT-SOUTH ZN SPACE FUNCTION SALES AREA LIGHTS,NECB-C-OCCUPANCY-NECB-C-LIGHTING-0.0-0.0-0.67-LIGHT RULESET,SP-RETAIL_1_FLR_1 SYS-6 FLR-2 SCH-C HPLCMT-SOUTH ZN,67.07,2.2,1039.984,15.506,465.000,0.000,0.500,0.200,0.300,1.000,General,51.999,935.986
 Lights Internal Gains Nominal, SP-RETAIL_2_FLR_1 SYS-6 FLR-2 SCH-C HPLCMT-WEST ZN SPACE FUNCTION SALES AREA LIGHTS,NECB-C-OCCUPANCY-NECB-C-LIGHTING-0.0-0.0-0.67-LIGHT RULESET,SP-RETAIL_2_FLR_1 SYS-6 FLR-2 SCH-C HPLCMT-WEST ZN,77.67,2.6,1204.305,15.506,465.000,0.000,0.500,0.200,0.300,1.000,General,60.215,1083.875
 Lights Internal Gains Nominal, SP-BASEMENT SYS-4 FLR-1 SCH-E HPLCMT-NORTH ZN SPACE FUNCTION STORAGE ROOM <= 5 M2 <= 100 M2-SCH-E LIGHTS,NECB-E-LIGHTING,SP-BASEMENT SYS-4 FLR-1 SCH-E HPLCMT-NORTH ZN,1978.83,19.8,13460.935,6.802,680.000,0.000,0.500,0.200,0.300,1.000,General,673.047,12114.842
 Lights Internal Gains Nominal, SP-STORAGE_FLR_1 SYS-4 FLR-2 SCH-E HPLCMT-NORTH ZN SPACE FUNCTION STORAGE ROOM <= 5 M2 <= 100 M2-SCH-E LIGHTS,NECB-E-LIGHTING,SP-STORAGE_FLR_1 SYS-4 FLR-2 SCH-E HPLCMT-NORTH ZN,94.76,0.9,644.597,6.802,680.000,0.000,0.500,0.200,0.300,1.000,General,32.230,580.138
! <ElectricEquipment Internal Gains Nominal>,Name,Schedule Name,Zone Name,Zone Floor Area {m2},# Zone Occupants,Equipment Level {W},Equipment/Floor Area {W/m2},Equipment per person {W/person},Fraction Latent,Fraction Radiant,Fraction Lost,Fraction Convected,End-Use SubCategory,Nominal Minimum Equipment Level {W},Nominal Maximum Equipment Level {W}
 ElectricEquipment Internal Gains Nominal, SP-BANQUET_FLR_6 SYS-3 FLR-4 SCH-B HPLCMT-NORTH ZN SPACE FUNCTION DINING AREA - OTHER ELEC EQUIP,NECB-B-ELECTRIC-EQUIPMENT,SP-BANQUET_FLR_6 SYS-3 FLR-4 SCH-B HPLCMT-NORTH ZN,331.66,33.2,331.778,1.000,10.000,0.000,0.500,0.000,0.500,General,33.178,298.600
 ElectricEquipment Internal Gains Nominal, SP-DINING_FLR_6 SYS-3 FLR-4 SCH-B HPLCMT-NORTH ZN SPACE FUNCTION DINING AREA - OTHER ELEC EQUIP,NECB-B-ELECTRIC-EQUIPMENT,SP-DINING_FLR_6 SYS-3 FLR-4 SCH-B HPLCMT-NORTH ZN,331.66,33.2,331.778,1.000,10.000,0.000,0.500,0.000,0.500,General,33.178,298.600
 ElectricEquipment Internal Gains Nominal, SP-MECH_FLR_1 SYS-6 FLR-2 SCH-E HPLCMT-NORTH ZN SPACE FUNCTION ELECTRICAL/MECHANICAL ROOM-SCH-E ELEC EQUIP,NECB-E-ELECTRIC-EQUIPMENT,SP-MECH_FLR_1 SYS-6 FLR-2 SCH-E HPLCMT-NORTH ZN,164.24,0.8,164.303,1.000,200.000,0.000,0.500,0.000,0.500,General,8.215,147.873
 ElectricEquipment Internal Gains Nominal, SP-KITCHEN_FLR_6 SYS-3 FLR-4 SCH-B HPLCMT-EAST ZN SPACE FUNCTION FOOD PREPARATION AREA ELEC EQUIP,NECB-B-ELECTRIC-EQUIPMENT,SP-KITCHEN_FLR_6 SYS-3 FLR-4 SCH-B HPLCMT-EAST ZN,103.30,5.2,1033.420,10.004,200.000,0.000,0.500,0.000,0.500,General,103.342,930.078
 ElectricEquipment Internal Gains Nominal, SP-ROOM_1_FLR_3 SYS-1 FLR-3 SCH-F HPLCMT-WEST ZN SPACE FUNCTION GUEST ROOM ELEC EQUIP,NECB-F-ELECTRIC-EQUIPMENT,SP-ROOM_1_FLR_3 SYS-1 FLR-3 SCH-F HPLCMT-WEST ZN,39.02,1.6,97.591,2.501,62.500,0.000,0.500,0.000,0.500,General,6.831,61.482
 ElectricEquipment Internal Gains Nominal, SP-ROOM_1_FLR_6 SYS-1 FLR-4 SCH-F HPLCMT-WEST ZN SPACE FUNCTION GUEST ROOM ELEC EQUIP,NECB-F-ELECTRIC-EQUIPMENT,SP-ROOM_1_FLR_6 SYS-1 FLR-4 SCH-F HPLCMT-WEST ZN,39.02,1.6,97.591,2.501,62.500,0.000,0.500,0.000,0.500,General,6.831,61.482
 ElectricEquipment Internal Gains Nominal, SP-ROOM_2_FLR_3 SYS-1 FLR-3 SCH-F HPLCMT-WEST ZN SPACE FUNCTION GUEST ROOM ELEC EQUIP,NECB-F-ELECTRIC-EQUIPMENT,SP-ROOM_2_FLR_3 SYS-1 FLR-3 SCH-F HPLCMT-WEST ZN,39.02,1.6,97.579,2.501,62.500,0.000,0.500,0.000,0.500,General,6.831,61.475
 ElectricEquipment Internal Gains Nominal, SP-ROOM_2_FLR_6 SYS-1 FLR-4 SCH-F HPLCMT-WEST ZN SPACE FUNCTION GUEST ROOM ELEC EQUIP,NECB-F-ELECTRIC-EQUIPMENT,SP-ROOM_2_FLR_6 SYS-1 FLR-4 SCH-F HPLCMT-WEST ZN,39.02,1.6,97.579,2.501,62.500,0.000,0.500,0.000,0.500,General,6.831,61.475
 ElectricEquipment Internal Gains Nominal, SP-ROOM_3_MULT19_FLR_3 SYS-1 FLR-3 SCH-F HPLCMT-SOUTH ZN SPACE FUNCTION GUEST ROOM ELEC EQUIP,NECB-F-ELECTRIC-EQUIPMENT,SP-ROOM_3_MULT19_FLR_3 SYS-1 FLR-3 SCH-F HPLCMT-SOUTH ZN,24.52,1.0,61.332,2.501,62.500,0.000,0.500,0.000,0.500,General,4.293,38.639
 ElectricEquipment Internal Gains Nominal, SP-ROOM_3_MULT9_FLR_6 SYS-1 FLR-4 SCH-F HPLCMT-SOUTH ZN SPACE FUNCTION GUEST ROOM ELEC EQUIP,NECB-F-ELECTRIC-EQUIPMENT,SP-ROOM_3_MULT9_FLR_6 SYS-1 FLR-4 SCH-F HPLCMT-SOUTH ZN,24.53,1.0,61.349,2.501,62.500,0.000,0.500,0.000,0.500,General,4.294,38.650
 ElectricEquipment Internal Gains Nominal, SP-ROOM_4_MULT19_FLR_3 SYS-1 FLR-3 SCH-F HPLCMT-NORTH ZN SPACE FUNCTION GUEST ROOM ELEC EQUIP,NECB-F-ELECTRIC-EQUIPMENT,SP-ROOM_4_MULT19_FLR_3 SYS-1 FLR-3 SCH-F HPLCMT-NORTH ZN,24.53,1.0,61.349,2.501,62.500,0.000,0.500,0.000,0.500,General,4.294,38.650
 ElectricEquipment Internal Gains Nominal, SP-ROOM_5_FLR_3 SYS-1 FLR-3 SCH-F HPLCMT-EAST ZN SPACE FUNCTION GUEST ROOM ELEC EQUIP,NECB-F-ELECTRIC-EQUIPMENT,SP-ROOM_5_FLR_3 SYS-1 FLR-3 SCH-F HPLCMT-EAST ZN,39.02,1.6,97.591,2.501,62.500,0.000,0.500,0.000,0.500,General,6.831,61.482
 ElectricEquipment Internal Gains Nominal, SP-ROOM_6_FLR_3 SYS-1 FLR-3 SCH-F HPLCMT-EAST ZN SPACE FUNCTION GUEST ROOM ELEC EQUIP,NECB-F-ELECTRIC-EQUIPMENT,SP-ROOM_6_FLR_3 SYS-1 FLR-3 SCH-F HPLCMT-EAST ZN,39.02,1.6,97.579,2.501,62.500,0.000,0.500,0.000,0.500,General,6.831,61.475
 ElectricEquipment Internal Gains Nominal, SP-LAUNDRY_FLR_1 SYS-6 FLR-2 SCH-C HPLCMT-EAST ZN SPACE FUNCTION LAUNDRY/WASHING AREA ELEC EQUIP,NECB-C-ELECTRIC-EQUIPMENT,SP-LAUNDRY_FLR_1 SYS-6 FLR-2 SCH-C HPLCMT-EAST ZN,78.04,3.9,1561.357,20.007,400.000,0.000,0.500,0.000,0.500,General,78.068,1405.221
 ElectricEquipment Internal Gains Nominal, SP-LOBBY_FLR_1 SYS-6 FLR-2 SCH-H HPLCMT-NORTH ZN SPACE FUNCTION LOBBY - HOTEL ELEC EQUIP,NECB-H-ELECTRIC-EQUIPMENT,SP-LOBBY_FLR_1 SYS-6 FLR-2 SCH-H HPLCMT-NORTH ZN,1308.19,130.9,3271.654,2.501,25.000,0.000,0.500,0.000,0.500,General,2944.488,2944.488
 ElectricEquipment Internal Gains Nominal, SP-CAFE_FLR_1 SYS-6 FLR-2 SCH-C HPLCMT-SOUTH ZN SPACE FUNCTION RETAIL FACILITY MALL CONCOURSE ELEC EQUIP,NECB-C-ELECTRIC-EQUIPMENT,SP-CAFE_FLR_1 SYS-6 FLR-2 SCH-C HPLCMT-SOUTH ZN,188.86,9.4,188.931,1.000,20.000,0.000,0.500,0.000,0.500,General,9.447,170.037
 ElectricEquipment Internal Gains Nominal, SP-RETAIL_1_FLR_1 SYS-6 FLR-2 SCH-C HPLCMT-SOUTH ZN SPACE FUNCTION SALES AREA ELEC EQUIP,NECB-C-ELECTRIC-EQUIPMENT,SP-RETAIL_1_FLR_1 SYS-6 FLR-2 SCH-C HPLCMT-SOUTH ZN,67.07,2.2,167.739,2.501,75.000,0.000,0.500,0.000,0.500,General,8.387,150.965
 ElectricEquipment Internal Gains Nominal, SP-RETAIL_2_FLR_1 SYS-6 FLR-2 SCH-C HPLCMT-WEST ZN SPACE FUNCTION SALES AREA ELEC EQUIP,NECB-C-ELECTRIC-EQUIPMENT,SP-RETAIL_2_FLR_1 SYS-6 FLR-2 SCH-C HPLCMT-WEST ZN,77.67,2.6,194.243,2.501,75.000,0.000,0.500,0.000,0.500,General,9.712,174.819
! <Shadowing/Sun Position Calculations Annual Simulations>, Calculation Method, Value {days}, Allowable Number Figures in Shadow Overlap {}, Polygon Clipping Algorithm, Sky Diffuse Modeling Algorithm, External Shading Calculation Method, Output External Shading Calculation Results, Disable Self-Shading Within Shading Zone Groups, Disable Self-Shading From Shading Zone Groups to Other Zones
Shadowing/Sun Position Calculations Annual Simulations,AverageOverDaysInFrequency,7,15000,SutherlandHodgman,SimpleSkyDiffuseModeling,InternalCalculation,No,No,No
! <Water Heater Information>,Type,Name,Volume {m3},Maximum Capacity {W},Standard Rated Recovery Efficiency, Standard Rated Energy Factor
! <ZoneInfiltration Airflow Stats Nominal>,Name,Schedule Name,Zone Name, Zone Floor Area {m2}, # Zone Occupants,Design Volume Flow Rate {m3/s},Volume Flow Rate/Floor Area {m3/s/m2},Volume Flow Rate/Exterior Surface Area {m3/s/m2},ACH - Air Changes per Hour,Equation A - Constant Term Coefficient {},Equation B - Temperature Term Coefficient {1/C},Equation C - Velocity Term Coefficient {s/m}, Equation D - Velocity Squared Term Coefficient {s2/m2}
 ZoneInfiltration Airflow Stats Nominal, BANQUET_FLR_6 INFILTRATION,ALWAYS ON DISCRETE,SP-BANQUET_FLR_6 SYS-3 FLR-4 SCH-B HPLCMT-NORTH ZN,331.66,33.2,0.107,3.235E-004,2.500E-004,0.382,0.000,0.000,0.224,0.000
 ZoneInfiltration Airflow Stats Nominal, CAFE_FLR_1 INFILTRATION,ALWAYS ON DISCRETE,SP-CAFE_FLR_1 SYS-6 FLR-2 SCH-C HPLCMT-SOUTH ZN,188.86,9.4,8.526E-002,4.514E-004,2.500E-004,0.410,0.000,0.000,0.224,0.000
 ZoneInfiltration Airflow Stats Nominal, CORRIDOR_FLR_3 INFILTRATION,ALWAYS ON DISCRETE,SP-CORRIDOR_FLR_3 SYS-1 FLR-3 SCH-E HPLCMT-SOUTH ZN,389.40,3.9,1.208E-002,3.101E-005,2.500E-004,3.663E-002,0.000,0.000,0.224,0.000
 ZoneInfiltration Airflow Stats Nominal, CORRIDOR_FLR_6 INFILTRATION,ALWAYS ON DISCRETE,SP-CORRIDOR_FLR_6 SYS-3 FLR-4 SCH-E HPLCMT-SOUTH ZN,412.12,4.1,0.124,3.018E-004,2.500E-004,0.357,0.000,0.000,0.224,0.000
 ZoneInfiltration Airflow Stats Nominal, DINING_FLR_6 INFILTRATION,ALWAYS ON DISCRETE,SP-DINING_FLR_6 SYS-3 FLR-4 SCH-B HPLCMT-NORTH ZN,331.66,33.2,0.107,3.235E-004,2.500E-004,0.382,0.000,0.000,0.224,0.000
 ZoneInfiltration Airflow Stats Nominal, KITCHEN_FLR_6 INFILTRATION,ALWAYS ON DISCRETE,SP-KITCHEN_FLR_6 SYS-3 FLR-4 SCH-B HPLCMT-EAST ZN,103.30,5.2,4.766E-002,4.613E-004,2.500E-004,0.545,0.000,0.000,0.224,0.000
 ZoneInfiltration Airflow Stats Nominal, LAUNDRY_FLR_1 INFILTRATION,ALWAYS ON DISCRETE,SP-LAUNDRY_FLR_1 SYS-6 FLR-2 SCH-C HPLCMT-EAST ZN,78.04,3.9,2.144E-002,2.747E-004,2.500E-004,0.250,0.000,0.000,0.224,0.000
 ZoneInfiltration Airflow Stats Nominal, LOBBY_FLR_1 INFILTRATION,ALWAYS ON DISCRETE,SP-LOBBY_FLR_1 SYS-6 FLR-2 SCH-H HPLCMT-NORTH ZN,1308.19,130.9,0.170,1.300E-004,2.500E-004,0.118,0.000,0.000,0.224,0.000
 ZoneInfiltration Airflow Stats Nominal, MECH_FLR_1 INFILTRATION,ALWAYS ON DISCRETE,SP-MECH_FLR_1 SYS-6 FLR-2 SCH-E HPLCMT-NORTH ZN,164.24,0.8,1.570E-002,9.559E-005,2.500E-004,8.685E-002,0.000,0.000,0.224,0.000
 ZoneInfiltration Airflow Stats Nominal, RETAIL_1_FLR_1 INFILTRATION,ALWAYS ON DISCRETE,SP-RETAIL_1_FLR_1 SYS-6 FLR-2 SCH-C HPLCMT-SOUTH ZN,67.07,2.2,3.398E-002,5.066E-004,2.500E-004,0.460,0.000,0.000,0.224,0.000
 ZoneInfiltration Airflow Stats Nominal, RETAIL_2_FLR_1 INFILTRATION,ALWAYS ON DISCRETE,SP-RETAIL_2_FLR_1 SYS-6 FLR-2 SCH-C HPLCMT-WEST ZN,77.67,2.6,6.643E-003,8.553E-005,2.500E-004,7.771E-002,0.000,0.000,0.224,0.000
 ZoneInfiltration Airflow Stats Nominal, ROOM_1_FLR_3 INFILTRATION,ALWAYS ON DISCRETE,SP-ROOM_1_FLR_3 SYS-1 FLR-3 SCH-F HPLCMT-WEST ZN,39.02,1.6,9.988E-003,2.559E-004,2.500E-004,0.302,0.000,0.000,0.224,0.000
 ZoneInfiltration Airflow Stats Nominal, ROOM_1_FLR_6 INFILTRATION,ALWAYS ON DISCRETE,SP-ROOM_1_FLR_6 SYS-1 FLR-4 SCH-F HPLCMT-WEST ZN,39.02,1.6,1.974E-002,5.059E-004,2.500E-004,0.598,0.000,0.000,0.224,0.000
 ZoneInfiltration Airflow Stats Nominal, ROOM_2_FLR_3 INFILTRATION,ALWAYS ON DISCRETE,SP-ROOM_2_FLR_3 SYS-1 FLR-3 SCH-F HPLCMT-WEST ZN,39.02,1.6,9.987E-003,2.560E-004,2.500E-004,0.302,0.000,0.000,0.224,0.000
 ZoneInfiltration Airflow Stats Nominal, ROOM_2_FLR_6 INFILTRATION,ALWAYS ON DISCRETE,SP-ROOM_2_FLR_6 SYS-1 FLR-4 SCH-F HPLCMT-WEST ZN,39.02,1.6,1.974E-002,5.060E-004,2.500E-004,0.598,0.000,0.000,0.224,0.000
 ZoneInfiltration Airflow Stats Nominal, ROOM_3_MULT19_FLR_3 INFILTRATION,ALWAYS ON DISCRETE,SP-ROOM_3_MULT19_FLR_3 SYS-1 FLR-3 SCH-F HPLCMT-SOUTH ZN,24.52,1.0,2.787E-003,1.136E-004,2.500E-004,0.134,0.000,0.000,0.224,0.000
 ZoneInfiltration Airflow Stats Nominal, ROOM_3_MULT9_FLR_6 INFILTRATION,ALWAYS ON DISCRETE,SP-ROOM_3_MULT9_FLR_6 SYS-1 FLR-4 SCH-F HPLCMT-SOUTH ZN,24.53,1.0,1.124E-002,4.583E-004,2.500E-004,0.541,0.000,0.000,0.224,0.000
 ZoneInfiltration Airflow Stats Nominal, ROOM_4_MULT19_FLR_3 INFILTRATION,ALWAYS ON DISCRETE,SP-ROOM_4_MULT19_FLR_3 SYS-1 FLR-3 SCH-F HPLCMT-NORTH ZN,24.53,1.0,2.787E-003,1.136E-004,2.500E-004,0.134,0.000,0.000,0.224,0.000
 ZoneInfiltration Airflow Stats Nominal, ROOM_5_FLR_3 INFILTRATION,ALWAYS ON DISCRETE,SP-ROOM_5_FLR_3 SYS-1 FLR-3 SCH-F HPLCMT-EAST ZN,39.02,1.6,9.988E-003,2.559E-004,2.500E-004,0.302,0.000,0.000,0.224,0.000
 ZoneInfiltration Airflow Stats Nominal, ROOM_6_FLR_3 INFILTRATION,ALWAYS ON DISCRETE,SP-ROOM_6_FLR_3 SYS-1 FLR-3 SCH-F HPLCMT-EAST ZN,39.02,1.6,9.987E-003,2.560E-004,2.500E-004,0.302,0.000,0.000,0.224,0.000
 ZoneInfiltration Airflow Stats Nominal, STORAGE_FLR_1 INFILTRATION,ALWAYS ON DISCRETE,SP-STORAGE_FLR_1 SYS-4 FLR-2 SCH-E HPLCMT-NORTH ZN,94.76,0.9,9.058E-003,9.559E-005,2.500E-004,8.685E-002,0.000,0.000,0.224,0.000
! <AirFlow Model>, Simple
 AirFlow Model, Simple
! <RoomAir Model>, Zone Name, Mixing/Mundt/UCSDDV/UCSDCV/UCSDUFI/UCSDUFE/User Defined
RoomAir Model,SP-BANQUET_FLR_6 SYS-3 FLR-4 SCH-B HPLCMT-NORTH ZN,Mixing/Well-Stirred
RoomAir Model,SP-BASEMENT SYS-4 FLR-1 SCH-E HPLCMT-NORTH ZN,Mixing/Well-Stirred
RoomAir Model,SP-CAFE_FLR_1 SYS-6 FLR-2 SCH-C HPLCMT-SOUTH ZN,Mixing/Well-Stirred
RoomAir Model,SP-CORRIDOR_FLR_3 SYS-1 FLR-3 SCH-E HPLCMT-SOUTH ZN,Mixing/Well-Stirred
RoomAir Model,SP-CORRIDOR_FLR_6 SYS-3 FLR-4 SCH-E HPLCMT-SOUTH ZN,Mixing/Well-Stirred
RoomAir Model,SP-DINING_FLR_6 SYS-3 FLR-4 SCH-B HPLCMT-NORTH ZN,Mixing/Well-Stirred
RoomAir Model,SP-KITCHEN_FLR_6 SYS-3 FLR-4 SCH-B HPLCMT-EAST ZN,Mixing/Well-Stirred
RoomAir Model,SP-LAUNDRY_FLR_1 SYS-6 FLR-2 SCH-C HPLCMT-EAST ZN,Mixing/Well-Stirred
RoomAir Model,SP-LOBBY_FLR_1 SYS-6 FLR-2 SCH-H HPLCMT-NORTH ZN,Mixing/Well-Stirred
RoomAir Model,SP-MECH_FLR_1 SYS-6 FLR-2 SCH-E HPLCMT-NORTH ZN,Mixing/Well-Stirred
RoomAir Model,SP-RETAIL_1_FLR_1 SYS-6 FLR-2 SCH-C HPLCMT-SOUTH ZN,Mixing/Well-Stirred
RoomAir Model,SP-RETAIL_2_FLR_1 SYS-6 FLR-2 SCH-C HPLCMT-WEST ZN,Mixing/Well-Stirred
RoomAir Model,SP-ROOM_1_FLR_3 SYS-1 FLR-3 SCH-F HPLCMT-WEST ZN,Mixing/Well-Stirred
RoomAir Model,SP-ROOM_1_FLR_6 SYS-1 FLR-4 SCH-F HPLCMT-WEST ZN,Mixing/Well-Stirred
RoomAir Model,SP-ROOM_2_FLR_3 SYS-1 FLR-3 SCH-F HPLCMT-WEST ZN,Mixing/Well-Stirred
