Program Version,EnergyPlus, Version 8.9.0-eba93e8e1b, YMD=2018.09.18 17:19
! This file shows details about the branches, nodes, and other
! elements of the flow connections.
! This file is intended for use in "debugging" potential problems
! that may also be detected by the program, but may be more easily
! identified by "eye".
! This file is also intended to support software which draws a
! schematic diagram of the HVAC system.
! ===============================================================
! #Nodes,<Number of Unique Nodes>
 #Nodes,111
! <Node>,<NodeNumber>,<Node Name>,<Node Fluid Type>,<# Times Node Referenced After Definition>
 Node,1,NODE 3,Air,2
 Node,2,NODE 2,Air,2
 Node,3,NODE 6,Air,2
 Node,4,NODE 5,Air,2
 Node,5,NODE 9,Air,2
 Node,6,NODE 8,Air,2
 Node,7,NODE 12,Air,2
 Node,8,NODE 11,Air,2
 Node,9,NODE 15,Air,2
 Node,10,NODE 14,Air,2
 Node,11,NODE 18,Air,2
 Node,12,NODE 17,Air,2
 Node,13,NODE 21,Air,2
 Node,14,NODE 20,Air,2
 Node,15,NODE 24,Air,2
 Node,16,NODE 23,Air,2
 Node,17,NODE 27,Air,2
 Node,18,NODE 26,Air,2
 Node,19,NODE 30,Air,2
 Node,20,NODE 29,Air,2
 Node,21,NODE 33,Air,2
 Node,22,NODE 32,Air,2
 Node,23,NODE 36,Air,2
 Node,24,NODE 35,Air,2
 Node,25,NODE 39,Air,2
 Node,26,NODE 38,Air,2
 Node,27,NODE 42,Air,2
 Node,28,NODE 41,Air,2
 Node,29,NODE 45,Air,2
 Node,30,NODE 44,Air,2
 Node,31,NODE 48,Air,2
 Node,32,NODE 47,Air,2
 Node,33,NODE 51,Air,2
 Node,34,NODE 50,Air,2
 Node,35,NODE 54,Air,2
 Node,36,NODE 53,Air,2
 Node,37,NODE 57,Air,2
 Node,38,NODE 56,Air,2
 Node,39,NODE 60,Air,2
 Node,40,NODE 59,Air,2
 Node,41,NODE 63,Air,2
 Node,42,NODE 62,Air,2
 Node,43,NODE 66,Air,2
 Node,44,NODE 65,Air,2
 Node,45,NODE 1,Air,0
 Node,46,BANQUET_FLR_6 ZN RETURN AIR NODE,Air,0
 Node,47,NODE 4,Air,0
 Node,48,BASEMENT ZN RETURN AIR NODE,Air,0
 Node,49,NODE 7,Air,0
 Node,50,CAFE_FLR_1 ZN RETURN AIR NODE,Air,0
 Node,51,NODE 10,Air,0
 Node,52,CORRIDOR_FLR_3 ZN RETURN AIR NODE,Air,0
 Node,53,NODE 13,Air,0
 Node,54,CORRIDOR_FLR_6 ZN RETURN AIR NODE,Air,0
 Node,55,NODE 16,Air,0
 Node,56,DINING_FLR_6 ZN RETURN AIR NODE,Air,0
 Node,57,NODE 19,Air,0
 Node,58,KITCHEN_FLR_6 ZN RETURN AIR NODE,Air,0
 Node,59,NODE 22,Air,0
 Node,60,LAUNDRY_FLR_1 ZN RETURN AIR NODE,Air,0
 Node,61,NODE 25,Air,0
 Node,62,LOBBY_FLR_1 ZN RETURN AIR NODE,Air,0
 Node,63,NODE 28,Air,0
 Node,64,MECH_FLR_1 ZN RETURN AIR NODE,Air,0
 Node,65,NODE 31,Air,0
 Node,66,RETAIL_1_FLR_1 ZN RETURN AIR NODE,Air,0
 Node,67,NODE 34,Air,0
 Node,68,RETAIL_2_FLR_1 ZN RETURN AIR NODE,Air,0
 Node,69,NODE 37,Air,0
 Node,70,ROOM_1_FLR_3 ZN RETURN AIR NODE,Air,0
 Node,71,NODE 40,Air,0
 Node,72,ROOM_1_FLR_6 ZN RETURN AIR NODE,Air,0
 Node,73,NODE 43,Air,0
 Node,74,ROOM_2_FLR_3 ZN RETURN AIR NODE,Air,0
 Node,75,NODE 46,Air,0
 Node,76,ROOM_2_FLR_6 ZN RETURN AIR NODE,Air,0
 Node,77,NODE 49,Air,0
 Node,78,ROOM_3_MULT19_FLR_3 ZN RETURN AIR NODE,Air,0
 Node,79,NODE 52,Air,0
 Node,80,ROOM_3_MULT9_FLR_6 ZN RETURN AIR NODE,Air,0
 Node,81,NODE 55,Air,0
 Node,82,ROOM_4_MULT19_FLR_3 ZN RETURN AIR NODE,Air,0
 Node,83,NODE 58,Air,0
 Node,84,ROOM_5_FLR_3 ZN RETURN AIR NODE,Air,0
 Node,85,NODE 61,Air,0
 Node,86,ROOM_6_FLR_3 ZN RETURN AIR NODE,Air,0
 Node,87,NODE 64,Air,0
 Node,88,STORAGE_FLR_1 ZN RETURN AIR NODE,Air,0
 Node,89,MODEL OUTDOOR AIR NODE,Air,0
 Node,90,ZONE HVAC IDEAL LOADS AIR SYSTEM 1 OUTDOOR AIR INLET NODE,Air,1
 Node,91,ZONE HVAC IDEAL LOADS AIR SYSTEM 2 OUTDOOR AIR INLET NODE,Air,1
 Node,92,ZONE HVAC IDEAL LOADS AIR SYSTEM 3 OUTDOOR AIR INLET NODE,Air,1
 Node,93,ZONE HVAC IDEAL LOADS AIR SYSTEM 4 OUTDOOR AIR INLET NODE,Air,1
 Node,94,ZONE HVAC IDEAL LOADS AIR SYSTEM 5 OUTDOOR AIR INLET NODE,Air,1
 Node,95,ZONE HVAC IDEAL LOADS AIR SYSTEM 6 OUTDOOR AIR INLET NODE,Air,1
 Node,96,ZONE HVAC IDEAL LOADS AIR SYSTEM 7 OUTDOOR AIR INLET NODE,Air,1
 Node,97,ZONE HVAC IDEAL LOADS AIR SYSTEM 8 OUTDOOR AIR INLET NODE,Air,1
 Node,98,ZONE HVAC IDEAL LOADS AIR SYSTEM 9 OUTDOOR AIR INLET NODE,Air,1
 Node,99,ZONE HVAC IDEAL LOADS AIR SYSTEM 10 OUTDOOR AIR INLET NODE,Air,1
 Node,100,ZONE HVAC IDEAL LOADS AIR SYSTEM 11 OUTDOOR AIR INLET NODE,Air,1
 Node,101,ZONE HVAC IDEAL LOADS AIR SYSTEM 12 OUTDOOR AIR INLET NODE,Air,1
 Node,102,ZONE HVAC IDEAL LOADS AIR SYSTEM 13 OUTDOOR AIR INLET NODE,Air,1
 Node,103,ZONE HVAC IDEAL LOADS AIR SYSTEM 14 OUTDOOR AIR INLET NODE,Air,1
 Node,104,ZONE HVAC IDEAL LOADS AIR SYSTEM 15 OUTDOOR AIR INLET NODE,Air,1
 Node,105,ZONE HVAC IDEAL LOADS AIR SYSTEM 16 OUTDOOR AIR INLET NODE,Air,1
 Node,106,ZONE HVAC IDEAL LOADS AIR SYSTEM 17 OUTDOOR AIR INLET NODE,Air,1
 Node,107,ZONE HVAC IDEAL LOADS AIR SYSTEM 18 OUTDOOR AIR INLET NODE,Air,1
 Node,108,ZONE HVAC IDEAL LOADS AIR SYSTEM 19 OUTDOOR AIR INLET NODE,Air,1
 Node,109,ZONE HVAC IDEAL LOADS AIR SYSTEM 20 OUTDOOR AIR INLET NODE,Air,1
 Node,110,ZONE HVAC IDEAL LOADS AIR SYSTEM 21 OUTDOOR AIR INLET NODE,Air,1
 Node,111,ZONE HVAC IDEAL LOADS AIR SYSTEM 22 OUTDOOR AIR INLET NODE,Air,1
! ===============================================================
! Suspicious nodes have 0 references.  It is normal for some nodes, however.
! Listing nodes with 0 references (culled from previous list):
! <Suspicious Node>,<NodeNumber>,<Node Name>,<Node Fluid Type>,<# Times Node Referenced After Definition>
 Suspicious Node,45,NODE 1,Air,0
 Suspicious Node,46,BANQUET_FLR_6 ZN RETURN AIR NODE,Air,0
 Suspicious Node,47,NODE 4,Air,0
 Suspicious Node,48,BASEMENT ZN RETURN AIR NODE,Air,0
 Suspicious Node,49,NODE 7,Air,0
 Suspicious Node,50,CAFE_FLR_1 ZN RETURN AIR NODE,Air,0
 Suspicious Node,51,NODE 10,Air,0
 Suspicious Node,52,CORRIDOR_FLR_3 ZN RETURN AIR NODE,Air,0
 Suspicious Node,53,NODE 13,Air,0
 Suspicious Node,54,CORRIDOR_FLR_6 ZN RETURN AIR NODE,Air,0
 Suspicious Node,55,NODE 16,Air,0
 Suspicious Node,56,DINING_FLR_6 ZN RETURN AIR NODE,Air,0
 Suspicious Node,57,NODE 19,Air,0
 Suspicious Node,58,KITCHEN_FLR_6 ZN RETURN AIR NODE,Air,0
 Suspicious Node,59,NODE 22,Air,0
 Suspicious Node,60,LAUNDRY_FLR_1 ZN RETURN AIR NODE,Air,0
 Suspicious Node,61,NODE 25,Air,0
 Suspicious Node,62,LOBBY_FLR_1 ZN RETURN AIR NODE,Air,0
 Suspicious Node,63,NODE 28,Air,0
 Suspicious Node,64,MECH_FLR_1 ZN RETURN AIR NODE,Air,0
 Suspicious Node,65,NODE 31,Air,0
 Suspicious Node,66,RETAIL_1_FLR_1 ZN RETURN AIR NODE,Air,0
 Suspicious Node,67,NODE 34,Air,0
 Suspicious Node,68,RETAIL_2_FLR_1 ZN RETURN AIR NODE,Air,0
 Suspicious Node,69,NODE 37,Air,0
 Suspicious Node,70,ROOM_1_FLR_3 ZN RETURN AIR NODE,Air,0
 Suspicious Node,71,NODE 40,Air,0
 Suspicious Node,72,ROOM_1_FLR_6 ZN RETURN AIR NODE,Air,0
 Suspicious Node,73,NODE 43,Air,0
 Suspicious Node,74,ROOM_2_FLR_3 ZN RETURN AIR NODE,Air,0
 Suspicious Node,75,NODE 46,Air,0
 Suspicious Node,76,ROOM_2_FLR_6 ZN RETURN AIR NODE,Air,0
 Suspicious Node,77,NODE 49,Air,0
 Suspicious Node,78,ROOM_3_MULT19_FLR_3 ZN RETURN AIR NODE,Air,0
 Suspicious Node,79,NODE 52,Air,0
 Suspicious Node,80,ROOM_3_MULT9_FLR_6 ZN RETURN AIR NODE,Air,0
 Suspicious Node,81,NODE 55,Air,0
 Suspicious Node,82,ROOM_4_MULT19_FLR_3 ZN RETURN AIR NODE,Air,0
 Suspicious Node,83,NODE 58,Air,0
 Suspicious Node,84,ROOM_5_FLR_3 ZN RETURN AIR NODE,Air,0
 Suspicious Node,85,NODE 61,Air,0
 Suspicious Node,86,ROOM_6_FLR_3 ZN RETURN AIR NODE,Air,0
 Suspicious Node,87,NODE 64,Air,0
 Suspicious Node,88,STORAGE_FLR_1 ZN RETURN AIR NODE,Air,0
 Suspicious Node,89,MODEL OUTDOOR AIR NODE,Air,0
! ===============================================================
! <#Branch Lists>,<Number of Branch Lists>
 #Branch Lists,0
! <Branch List>,<Branch List Count>,<Branch List Name>,<Loop Name>,<Loop Type>,<Number of Branches>
! <Branch>,<Branch Count>,<Branch Name>,<Loop Name>,<Loop Type>,<Branch Inlet Node Name>,<Branch Outlet Node Name>
! ===============================================================
! <#Supply Air Paths>,<Number of Supply Air Paths>
 #Supply Air Paths,0
! <Supply Air Path>,<Supply Air Path Count>,<Supply Air Path Name>,<AirLoopHVAC Name>
! <#Components on Supply Air Path>,<Number of Components>
! <Supply Air Path Component>,<Component Count>,<Component Type>,<Component Name>,<AirLoopHVAC Name>
! <#Outlet Nodes on Supply Air Path Component>,<Number of Nodes>
! <Supply Air Path Component Nodes>,<Node Count>,<Component Type>,<Component Name>,<Inlet Node Name>,<Outlet Node Name>,<AirLoopHVAC Name>
! ===============================================================
! <#Return Air Paths>,<Number of Return Air Paths>
 #Return Air Paths,0
! <Return Air Path>,<Return Air Path Count>,<Return Air Path Name>,<AirLoopHVAC Name>
! <#Components on Return Air Path>,<Number of Components>
! <Return Air Path Component>,<Component Count>,<Component Type>,<Component Name>,<AirLoopHVAC Name>
! <#Inlet Nodes on Return Air Path Component>,<Number of Nodes>
! <Return Air Path Component Nodes>,<Node Count>,<Component Type>,<Component Name>,<Inlet Node Name>,<Outlet Node Name>,<AirLoopHVAC Name>
! ===============================================================
! #Outdoor Air Nodes,<Number of Outdoor Air Nodes>
 #Outdoor Air Nodes,23
! <Outdoor Air Node>,<NodeNumber>,<Node Name>
 Outdoor Air Node,89,MODEL OUTDOOR AIR NODE
 Outdoor Air Node,90,ZONE HVAC IDEAL LOADS AIR SYSTEM 1 OUTDOOR AIR INLET NODE
 Outdoor Air Node,91,ZONE HVAC IDEAL LOADS AIR SYSTEM 2 OUTDOOR AIR INLET NODE
 Outdoor Air Node,92,ZONE HVAC IDEAL LOADS AIR SYSTEM 3 OUTDOOR AIR INLET NODE
 Outdoor Air Node,93,ZONE HVAC IDEAL LOADS AIR SYSTEM 4 OUTDOOR AIR INLET NODE
 Outdoor Air Node,94,ZONE HVAC IDEAL LOADS AIR SYSTEM 5 OUTDOOR AIR INLET NODE
 Outdoor Air Node,95,ZONE HVAC IDEAL LOADS AIR SYSTEM 6 OUTDOOR AIR INLET NODE
 Outdoor Air Node,96,ZONE HVAC IDEAL LOADS AIR SYSTEM 7 OUTDOOR AIR INLET NODE
 Outdoor Air Node,97,ZONE HVAC IDEAL LOADS AIR SYSTEM 8 OUTDOOR AIR INLET NODE
 Outdoor Air Node,98,ZONE HVAC IDEAL LOADS AIR SYSTEM 9 OUTDOOR AIR INLET NODE
 Outdoor Air Node,99,ZONE HVAC IDEAL LOADS AIR SYSTEM 10 OUTDOOR AIR INLET NODE
 Outdoor Air Node,100,ZONE HVAC IDEAL LOADS AIR SYSTEM 11 OUTDOOR AIR INLET NODE
 Outdoor Air Node,101,ZONE HVAC IDEAL LOADS AIR SYSTEM 12 OUTDOOR AIR INLET NODE
 Outdoor Air Node,102,ZONE HVAC IDEAL LOADS AIR SYSTEM 13 OUTDOOR AIR INLET NODE
 Outdoor Air Node,103,ZONE HVAC IDEAL LOADS AIR SYSTEM 14 OUTDOOR AIR INLET NODE
 Outdoor Air Node,104,ZONE HVAC IDEAL LOADS AIR SYSTEM 15 OUTDOOR AIR INLET NODE
 Outdoor Air Node,105,ZONE HVAC IDEAL LOADS AIR SYSTEM 16 OUTDOOR AIR INLET NODE
 Outdoor Air Node,106,ZONE HVAC IDEAL LOADS AIR SYSTEM 17 OUTDOOR AIR INLET NODE
 Outdoor Air Node,107,ZONE HVAC IDEAL LOADS AIR SYSTEM 18 OUTDOOR AIR INLET NODE
 Outdoor Air Node,108,ZONE HVAC IDEAL LOADS AIR SYSTEM 19 OUTDOOR AIR INLET NODE
 Outdoor Air Node,109,ZONE HVAC IDEAL LOADS AIR SYSTEM 20 OUTDOOR AIR INLET NODE
 Outdoor Air Node,110,ZONE HVAC IDEAL LOADS AIR SYSTEM 21 OUTDOOR AIR INLET NODE
 Outdoor Air Node,111,ZONE HVAC IDEAL LOADS AIR SYSTEM 22 OUTDOOR AIR INLET NODE
! ===============================================================
! <#Component Sets>,<Number of Component Sets>
 #Component Sets,0
! <Component Set>,<Component Set Count>,<Parent Object Type>,<Parent Object Name>,<Component Type>,<Component Name>,<Inlet Node ID>,<Outlet Node ID>,<Description>
! ===============================================================
! <# Plant Loops>,<Number of Plant Loops>
 #Plant Loops,0
! <Plant Loop>,<Plant Loop Name>,<Loop Type>,<Inlet Node Name>,<Outlet Node Name>,<Branch List>,<Connector List>
! <Plant Loop Connector>,<Connector Type>,<Connector Name>,<Loop Name>,<Loop Type>,<Number of Inlets/Outlets>
! <Plant Loop Connector Branches>,<Connector Node Count>,<Connector Type>,<Connector Name>,<Inlet Branch>,<Outlet Branch>,<Loop Name>,<Loop Type>
! <Plant Loop Connector Nodes>,<Connector Node Count>,<Connector Type>,<Connector Name>,<Inlet Node>,<Outlet Node>,<Loop Name>,<Loop Type>
! <Plant Loop Supply Connection>,<Plant Loop Name>,<Supply Side Outlet Node Name>,<Demand Side Inlet Node Name>
! <Plant Loop Return Connection>,<Plant Loop Name>,<Demand Side Outlet Node Name>,<Supply Side Inlet Node Name>
! ===============================================================
! <# Condenser Loops>,<Number of Condenser Loops>
 #Condenser Loops,0
! <Condenser Loop>,<Condenser Loop Name>,<Loop Type>,<Inlet Node Name>,<Outlet Node Name>,<Branch List>,<Connector List>
! <Condenser Loop Connector>,<Connector Type>,<Connector Name>,<Loop Name>,<Loop Type>,<Number of Inlets/Outlets>
! <Condenser Loop Connector Branches>,<Connector Node Count>,<Connector Type>,<Connector Name>,<Inlet Branch>,<Outlet Branch>,<Loop Name>,<Loop Type>
! <Condenser Loop Connector Nodes>,<Connector Node Count>,<Connector Type>,<Connector Name>,<Inlet Node>,<Outlet Node>,<Loop Name>,<Loop Type>
! <Condenser Loop Supply Connection>,<Condenser Loop Name>,<Supply Side Outlet Node Name>,<Demand Side Inlet Node Name>
! <Condenser Loop Return Connection>,<Condenser Loop Name>,<Demand Side Outlet Node Name>,<Supply Side Inlet Node Name>
! ===============================================================
! <# Controlled Zones>,<Number of Controlled Zones>
 #Controlled Zones,22
! <Controlled Zone>,<Controlled Zone Name>,<Equip List Name>,<Control List Name>,<Zone Node Name>,<# Inlet Nodes>,<# Exhaust Nodes>,<# Return Nodes>
! <Controlled Zone Inlet>,<Inlet Node Count>,<Controlled Zone Name>,<Supply Air Inlet Node Name>,<SD Sys:Cooling/Heating [DD:Cooling] Inlet Node Name>,<DD Sys:Heating Inlet Node Name>
! <Controlled Zone Exhaust>,<Exhaust Node Count>,<Controlled Zone Name>,<Exhaust Air Node Name>
 Controlled Zone,BANQUET_FLR_6 ZN,BANQUET_FLR_6 ZN EQUIPMENT LIST,,NODE 1,1,1,1
   Controlled Zone Inlet,1,BANQUET_FLR_6 ZN,NODE 3,Undefined,N/A
   Controlled Zone Exhaust,1,BANQUET_FLR_6 ZN,NODE 2
   Controlled Zone Return,1,BANQUET_FLR_6 ZN,BANQUET_FLR_6 ZN RETURN AIR NODE
 Controlled Zone,BASEMENT ZN,BASEMENT ZN EQUIPMENT LIST,,NODE 4,1,1,1
   Controlled Zone Inlet,1,BASEMENT ZN,NODE 6,Undefined,N/A
   Controlled Zone Exhaust,1,BASEMENT ZN,NODE 5
   Controlled Zone Return,1,BASEMENT ZN,BASEMENT ZN RETURN AIR NODE
 Controlled Zone,CAFE_FLR_1 ZN,CAFE_FLR_1 ZN EQUIPMENT LIST,,NODE 7,1,1,1
   Controlled Zone Inlet,1,CAFE_FLR_1 ZN,NODE 9,Undefined,N/A
   Controlled Zone Exhaust,1,CAFE_FLR_1 ZN,NODE 8
   Controlled Zone Return,1,CAFE_FLR_1 ZN,CAFE_FLR_1 ZN RETURN AIR NODE
 Controlled Zone,CORRIDOR_FLR_3 ZN,CORRIDOR_FLR_3 ZN EQUIPMENT LIST,,NODE 10,1,1,1
   Controlled Zone Inlet,1,CORRIDOR_FLR_3 ZN,NODE 12,Undefined,N/A
   Controlled Zone Exhaust,1,CORRIDOR_FLR_3 ZN,NODE 11
   Controlled Zone Return,1,CORRIDOR_FLR_3 ZN,CORRIDOR_FLR_3 ZN RETURN AIR NODE
 Controlled Zone,CORRIDOR_FLR_6 ZN,CORRIDOR_FLR_6 ZN EQUIPMENT LIST,,NODE 13,1,1,1
   Controlled Zone Inlet,1,CORRIDOR_FLR_6 ZN,NODE 15,Undefined,N/A
   Controlled Zone Exhaust,1,CORRIDOR_FLR_6 ZN,NODE 14
   Controlled Zone Return,1,CORRIDOR_FLR_6 ZN,CORRIDOR_FLR_6 ZN RETURN AIR NODE
 Controlled Zone,DINING_FLR_6 ZN,DINING_FLR_6 ZN EQUIPMENT LIST,,NODE 16,1,1,1
   Controlled Zone Inlet,1,DINING_FLR_6 ZN,NODE 18,Undefined,N/A
   Controlled Zone Exhaust,1,DINING_FLR_6 ZN,NODE 17
   Controlled Zone Return,1,DINING_FLR_6 ZN,DINING_FLR_6 ZN RETURN AIR NODE
 Controlled Zone,KITCHEN_FLR_6 ZN,KITCHEN_FLR_6 ZN EQUIPMENT LIST,,NODE 19,1,1,1
   Controlled Zone Inlet,1,KITCHEN_FLR_6 ZN,NODE 21,Undefined,N/A
   Controlled Zone Exhaust,1,KITCHEN_FLR_6 ZN,NODE 20
   Controlled Zone Return,1,KITCHEN_FLR_6 ZN,KITCHEN_FLR_6 ZN RETURN AIR NODE
 Controlled Zone,LAUNDRY_FLR_1 ZN,LAUNDRY_FLR_1 ZN EQUIPMENT LIST,,NODE 22,1,1,1
   Controlled Zone Inlet,1,LAUNDRY_FLR_1 ZN,NODE 24,Undefined,N/A
   Controlled Zone Exhaust,1,LAUNDRY_FLR_1 ZN,NODE 23
   Controlled Zone Return,1,LAUNDRY_FLR_1 ZN,LAUNDRY_FLR_1 ZN RETURN AIR NODE
 Controlled Zone,LOBBY_FLR_1 ZN,LOBBY_FLR_1 ZN EQUIPMENT LIST,,NODE 25,1,1,1
   Controlled Zone Inlet,1,LOBBY_FLR_1 ZN,NODE 27,Undefined,N/A
   Controlled Zone Exhaust,1,LOBBY_FLR_1 ZN,NODE 26
   Controlled Zone Return,1,LOBBY_FLR_1 ZN,LOBBY_FLR_1 ZN RETURN AIR NODE
 Controlled Zone,MECH_FLR_1 ZN,MECH_FLR_1 ZN EQUIPMENT LIST,,NODE 28,1,1,1
   Controlled Zone Inlet,1,MECH_FLR_1 ZN,NODE 30,Undefined,N/A
   Controlled Zone Exhaust,1,MECH_FLR_1 ZN,NODE 29
   Controlled Zone Return,1,MECH_FLR_1 ZN,MECH_FLR_1 ZN RETURN AIR NODE
 Controlled Zone,RETAIL_1_FLR_1 ZN,RETAIL_1_FLR_1 ZN EQUIPMENT LIST,,NODE 31,1,1,1
   Controlled Zone Inlet,1,RETAIL_1_FLR_1 ZN,NODE 33,Undefined,N/A
   Controlled Zone Exhaust,1,RETAIL_1_FLR_1 ZN,NODE 32
   Controlled Zone Return,1,RETAIL_1_FLR_1 ZN,RETAIL_1_FLR_1 ZN RETURN AIR NODE
 Controlled Zone,RETAIL_2_FLR_1 ZN,RETAIL_2_FLR_1 ZN EQUIPMENT LIST,,NODE 34,1,1,1
   Controlled Zone Inlet,1,RETAIL_2_FLR_1 ZN,NODE 36,Undefined,N/A
   Controlled Zone Exhaust,1,RETAIL_2_FLR_1 ZN,NODE 35
   Controlled Zone Return,1,RETAIL_2_FLR_1 ZN,RETAIL_2_FLR_1 ZN RETURN AIR NODE
 Controlled Zone,ROOM_1_FLR_3 ZN,ROOM_1_FLR_3 ZN EQUIPMENT LIST,,NODE 37,1,1,1
   Controlled Zone Inlet,1,ROOM_1_FLR_3 ZN,NODE 39,Undefined,N/A
   Controlled Zone Exhaust,1,ROOM_1_FLR_3 ZN,NODE 38
   Controlled Zone Return,1,ROOM_1_FLR_3 ZN,ROOM_1_FLR_3 ZN RETURN AIR NODE
 Controlled Zone,ROOM_1_FLR_6 ZN,ROOM_1_FLR_6 ZN EQUIPMENT LIST,,NODE 40,1,1,1
   Controlled Zone Inlet,1,ROOM_1_FLR_6 ZN,NODE 42,Undefined,N/A
   Controlled Zone Exhaust,1,ROOM_1_FLR_6 ZN,NODE 41
   Controlled Zone Return,1,ROOM_1_FLR_6 ZN,ROOM_1_FLR_6 ZN RETURN AIR NODE
 Controlled Zone,ROOM_2_FLR_3 ZN,ROOM_2_FLR_3 ZN EQUIPMENT LIST,,NODE 43,1,1,1
   Controlled Zone Inlet,1,ROOM_2_FLR_3 ZN,NODE 45,Undefined,N/A
   Controlled Zone Exhaust,1,ROOM_2_FLR_3 ZN,NODE 44
   Controlled Zone Return,1,ROOM_2_FLR_3 ZN,ROOM_2_FLR_3 ZN RETURN AIR NODE
 Controlled Zone,ROOM_2_FLR_6 ZN,ROOM_2_FLR_6 ZN EQUIPMENT LIST,,NODE 46,1,1,1
   Controlled Zone Inlet,1,ROOM_2_FLR_6 ZN,NODE 48,Undefined,N/A
   Controlled Zone Exhaust,1,ROOM_2_FLR_6 ZN,NODE 47
   Controlled Zone Return,1,ROOM_2_FLR_6 ZN,ROOM_2_FLR_6 ZN RETURN AIR NODE
 Controlled Zone,ROOM_3_MULT19_FLR_3 ZN,ROOM_3_MULT19_FLR_3 ZN EQUIPMENT LIST,,NODE 49,1,1,1
   Controlled Zone Inlet,1,ROOM_3_MULT19_FLR_3 ZN,NODE 51,Undefined,N/A
   Controlled Zone Exhaust,1,ROOM_3_MULT19_FLR_3 ZN,NODE 50
   Controlled Zone Return,1,ROOM_3_MULT19_FLR_3 ZN,ROOM_3_MULT19_FLR_3 ZN RETURN AIR NODE
 Controlled Zone,ROOM_3_MULT9_FLR_6 ZN,ROOM_3_MULT9_FLR_6 ZN EQUIPMENT LIST,,NODE 52,1,1,1
   Controlled Zone Inlet,1,ROOM_3_MULT9_FLR_6 ZN,NODE 54,Undefined,N/A
   Controlled Zone Exhaust,1,ROOM_3_MULT9_FLR_6 ZN,NODE 53
   Controlled Zone Return,1,ROOM_3_MULT9_FLR_6 ZN,ROOM_3_MULT9_FLR_6 ZN RETURN AIR NODE
 Controlled Zone,ROOM_4_MULT19_FLR_3 ZN,ROOM_4_MULT19_FLR_3 ZN EQUIPMENT LIST,,NODE 55,1,1,1
   Controlled Zone Inlet,1,ROOM_4_MULT19_FLR_3 ZN,NODE 57,Undefined,N/A
   Controlled Zone Exhaust,1,ROOM_4_MULT19_FLR_3 ZN,NODE 56
   Controlled Zone Return,1,ROOM_4_MULT19_FLR_3 ZN,ROOM_4_MULT19_FLR_3 ZN RETURN AIR NODE
 Controlled Zone,ROOM_5_FLR_3 ZN,ROOM_5_FLR_3 ZN EQUIPMENT LIST,,NODE 58,1,1,1
   Controlled Zone Inlet,1,ROOM_5_FLR_3 ZN,NODE 60,Undefined,N/A
   Controlled Zone Exhaust,1,ROOM_5_FLR_3 ZN,NODE 59
   Controlled Zone Return,1,ROOM_5_FLR_3 ZN,ROOM_5_FLR_3 ZN RETURN AIR NODE
 Controlled Zone,ROOM_6_FLR_3 ZN,ROOM_6_FLR_3 ZN EQUIPMENT LIST,,NODE 61,1,1,1
   Controlled Zone Inlet,1,ROOM_6_FLR_3 ZN,NODE 63,Undefined,N/A
   Controlled Zone Exhaust,1,ROOM_6_FLR_3 ZN,NODE 62
   Controlled Zone Return,1,ROOM_6_FLR_3 ZN,ROOM_6_FLR_3 ZN RETURN AIR NODE
 Controlled Zone,STORAGE_FLR_1 ZN,STORAGE_FLR_1 ZN EQUIPMENT LIST,,NODE 64,1,1,1
   Controlled Zone Inlet,1,STORAGE_FLR_1 ZN,NODE 66,Undefined,N/A
   Controlled Zone Exhaust,1,STORAGE_FLR_1 ZN,NODE 65
   Controlled Zone Return,1,STORAGE_FLR_1 ZN,STORAGE_FLR_1 ZN RETURN AIR NODE
! ===============================================================
! <#Zone Equipment Lists>,<Number of Zone Equipment Lists>
 #Zone Equipment Lists,22
! <Zone Equipment List>,<Zone Equipment List Count>,<Zone Equipment List Name>,<Zone Name>,<Number of Components>
! <Zone Equipment Component>,<Component Count>,<Component Type>,<Component Name>,<Zone Name>,<Heating Priority>,<Cooling Priority>
 Zone Equipment List,1,BANQUET_FLR_6 ZN EQUIPMENT LIST,BANQUET_FLR_6 ZN,1
   Zone Equipment Component,1,ZONEHVAC:IDEALLOADSAIRSYSTEM,ZONE HVAC IDEAL LOADS AIR SYSTEM 1,BANQUET_FLR_6 ZN,1,1
 Zone Equipment List,2,BASEMENT ZN EQUIPMENT LIST,BASEMENT ZN,1
   Zone Equipment Component,1,ZONEHVAC:IDEALLOADSAIRSYSTEM,ZONE HVAC IDEAL LOADS AIR SYSTEM 2,BASEMENT ZN,1,1
 Zone Equipment List,3,CAFE_FLR_1 ZN EQUIPMENT LIST,CAFE_FLR_1 ZN,1
   Zone Equipment Component,1,ZONEHVAC:IDEALLOADSAIRSYSTEM,ZONE HVAC IDEAL LOADS AIR SYSTEM 3,CAFE_FLR_1 ZN,1,1
 Zone Equipment List,4,CORRIDOR_FLR_3 ZN EQUIPMENT LIST,CORRIDOR_FLR_3 ZN,1
   Zone Equipment Component,1,ZONEHVAC:IDEALLOADSAIRSYSTEM,ZONE HVAC IDEAL LOADS AIR SYSTEM 4,CORRIDOR_FLR_3 ZN,1,1
 Zone Equipment List,5,CORRIDOR_FLR_6 ZN EQUIPMENT LIST,CORRIDOR_FLR_6 ZN,1
   Zone Equipment Component,1,ZONEHVAC:IDEALLOADSAIRSYSTEM,ZONE HVAC IDEAL LOADS AIR SYSTEM 5,CORRIDOR_FLR_6 ZN,1,1
 Zone Equipment List,6,DINING_FLR_6 ZN EQUIPMENT LIST,DINING_FLR_6 ZN,1
   Zone Equipment Component,1,ZONEHVAC:IDEALLOADSAIRSYSTEM,ZONE HVAC IDEAL LOADS AIR SYSTEM 6,DINING_FLR_6 ZN,1,1
 Zone Equipment List,7,KITCHEN_FLR_6 ZN EQUIPMENT LIST,KITCHEN_FLR_6 ZN,1
   Zone Equipment Component,1,ZONEHVAC:IDEALLOADSAIRSYSTEM,ZONE HVAC IDEAL LOADS AIR SYSTEM 7,KITCHEN_FLR_6 ZN,1,1
 Zone Equipment List,8,LAUNDRY_FLR_1 ZN EQUIPMENT LIST,LAUNDRY_FLR_1 ZN,1
   Zone Equipment Component,1,ZONEHVAC:IDEALLOADSAIRSYSTEM,ZONE HVAC IDEAL LOADS AIR SYSTEM 8,LAUNDRY_FLR_1 ZN,1,1
 Zone Equipment List,9,LOBBY_FLR_1 ZN EQUIPMENT LIST,LOBBY_FLR_1 ZN,1
   Zone Equipment Component,1,ZONEHVAC:IDEALLOADSAIRSYSTEM,ZONE HVAC IDEAL LOADS AIR SYSTEM 9,LOBBY_FLR_1 ZN,1,1
 Zone Equipment List,10,MECH_FLR_1 ZN EQUIPMENT LIST,MECH_FLR_1 ZN,1
   Zone Equipment Component,1,ZONEHVAC:IDEALLOADSAIRSYSTEM,ZONE HVAC IDEAL LOADS AIR SYSTEM 10,MECH_FLR_1 ZN,1,1
 Zone Equipment List,11,RETAIL_1_FLR_1 ZN EQUIPMENT LIST,RETAIL_1_FLR_1 ZN,1
   Zone Equipment Component,1,ZONEHVAC:IDEALLOADSAIRSYSTEM,ZONE HVAC IDEAL LOADS AIR SYSTEM 11,RETAIL_1_FLR_1 ZN,1,1
 Zone Equipment List,12,RETAIL_2_FLR_1 ZN EQUIPMENT LIST,RETAIL_2_FLR_1 ZN,1
   Zone Equipment Component,1,ZONEHVAC:IDEALLOADSAIRSYSTEM,ZONE HVAC IDEAL LOADS AIR SYSTEM 12,RETAIL_2_FLR_1 ZN,1,1
 Zone Equipment List,13,ROOM_1_FLR_3 ZN EQUIPMENT LIST,ROOM_1_FLR_3 ZN,1
   Zone Equipment Component,1,ZONEHVAC:IDEALLOADSAIRSYSTEM,ZONE HVAC IDEAL LOADS AIR SYSTEM 13,ROOM_1_FLR_3 ZN,1,1
 Zone Equipment List,14,ROOM_1_FLR_6 ZN EQUIPMENT LIST,ROOM_1_FLR_6 ZN,1
   Zone Equipment Component,1,ZONEHVAC:IDEALLOADSAIRSYSTEM,ZONE HVAC IDEAL LOADS AIR SYSTEM 14,ROOM_1_FLR_6 ZN,1,1
 Zone Equipment List,15,ROOM_2_FLR_3 ZN EQUIPMENT LIST,ROOM_2_FLR_3 ZN,1
   Zone Equipment Component,1,ZONEHVAC:IDEALLOADSAIRSYSTEM,ZONE HVAC IDEAL LOADS AIR SYSTEM 15,ROOM_2_FLR_3 ZN,1,1
 Zone Equipment List,16,ROOM_2_FLR_6 ZN EQUIPMENT LIST,ROOM_2_FLR_6 ZN,1
   Zone Equipment Component,1,ZONEHVAC:IDEALLOADSAIRSYSTEM,ZONE HVAC IDEAL LOADS AIR SYSTEM 16,ROOM_2_FLR_6 ZN,1,1
 Zone Equipment List,17,ROOM_3_MULT19_FLR_3 ZN EQUIPMENT LIST,ROOM_3_MULT19_FLR_3 ZN,1
   Zone Equipment Component,1,ZONEHVAC:IDEALLOADSAIRSYSTEM,ZONE HVAC IDEAL LOADS AIR SYSTEM 17,ROOM_3_MULT19_FLR_3 ZN,1,1
 Zone Equipment List,18,ROOM_3_MULT9_FLR_6 ZN EQUIPMENT LIST,ROOM_3_MULT9_FLR_6 ZN,1
   Zone Equipment Component,1,ZONEHVAC:IDEALLOADSAIRSYSTEM,ZONE HVAC IDEAL LOADS AIR SYSTEM 18,ROOM_3_MULT9_FLR_6 ZN,1,1
 Zone Equipment List,19,ROOM_4_MULT19_FLR_3 ZN EQUIPMENT LIST,ROOM_4_MULT19_FLR_3 ZN,1
   Zone Equipment Component,1,ZONEHVAC:IDEALLOADSAIRSYSTEM,ZONE HVAC IDEAL LOADS AIR SYSTEM 19,ROOM_4_MULT19_FLR_3 ZN,1,1
 Zone Equipment List,20,ROOM_5_FLR_3 ZN EQUIPMENT LIST,ROOM_5_FLR_3 ZN,1
   Zone Equipment Component,1,ZONEHVAC:IDEALLOADSAIRSYSTEM,ZONE HVAC IDEAL LOADS AIR SYSTEM 20,ROOM_5_FLR_3 ZN,1,1
 Zone Equipment List,21,ROOM_6_FLR_3 ZN EQUIPMENT LIST,ROOM_6_FLR_3 ZN,1
   Zone Equipment Component,1,ZONEHVAC:IDEALLOADSAIRSYSTEM,ZONE HVAC IDEAL LOADS AIR SYSTEM 21,ROOM_6_FLR_3 ZN,1,1
 Zone Equipment List,22,STORAGE_FLR_1 ZN EQUIPMENT LIST,STORAGE_FLR_1 ZN,1
   Zone Equipment Component,1,ZONEHVAC:IDEALLOADSAIRSYSTEM,ZONE HVAC IDEAL LOADS AIR SYSTEM 22,STORAGE_FLR_1 ZN,1,1
! ===============================================================
! <#AirLoopHVACs>,<Number of AirLoopHVACs>
 #AirLoopHVACs,0
! <AirLoopHVAC>,<Air Loop Name>,<# Return Nodes>,<# Supply Nodes>,<# Zones Cooled>,<# Zones Heated>,<Outdoor Air Used>
! <AirLoop Return Connections>,<Connection Count>,<AirLoopHVAC Name>,<Zn Eqp Return Node #>,<Zn Eqp Return Node Name>,<AirLoop Return Node #>,<Air Loop Return Node Name>
! <AirLoop Supply Connections>,<Connection Count>,<AirLoopHVAC Name>,<Zn Eqp Supply Node #>,<Zn Eqp Supply Node Name>,<AirLoop Supply Node #>,<Air Loop Supply Node Name>
! <Cooled Zone Info>,<Cooled Zone Count>,<Cooled Zone Name>,<Cooled Zone Inlet Node #>,<Cooled Zone Inlet Node Name>,<AirLoopHVAC Name>
! <Heated Zone Info>,<Heated Zone Count>,<Heated Zone Name>,<Heated Zone Inlet Node #>,<Heated Zone Inlet Node Name>,<AirLoopHVAC Name>
! <Outdoor Air Connections>,<OA Inlet Node #>,<OA Return Air Inlet Node Name>,<OA Outlet Node #>,<OA Mixed Air Outlet Node Name>,<AirLoopHVAC Name>
! <AirLoopHVAC Connector>,<Connector Type>,<Connector Name>,<Loop Name>,<Loop Type>,<Number of Inlets/Outlets>
! <AirLoopHVAC Connector Branches>,<Connector Node Count>,<Connector Type>,<Connector Name>,<Inlet Branch>,<Outlet Branch>,<Loop Name>,<Loop Type>
! <AirLoopHVAC Connector Nodes>,<Connector Node Count>,<Connector Type>,<Connector Name>,<Inlet Node>,<Outlet Node>,<Loop Name>,<Loop Type>
! ===============================================================
! <#Parent Node Connections>,<Number of Parent Node Connections>
 #Parent Node Connections,0
! <Parent Node Connection>,<Node Name>,<Node ObjectType>,<Node ObjectName>,<Node ConnectionType>,<Node FluidStream>
! ===============================================================
! <#Non-Parent Node Connections>,<Number of Non-Parent Node Connections>
 #Non-Parent Node Connections,177
! <Non-Parent Node Connection>,<Node Name>,<Node ObjectType>,<Node ObjectName>,<Node ConnectionType>,<Node FluidStream>
 Non-Parent Node Connection,NODE 1,ZONEHVAC:EQUIPMENTCONNECTIONS,BANQUET_FLR_6 ZN,ZoneNode,1
 Non-Parent Node Connection,NODE 3,ZONEHVAC:EQUIPMENTCONNECTIONS,BANQUET_FLR_6 ZN,ZoneInlet,1
 Non-Parent Node Connection,NODE 2,ZONEHVAC:EQUIPMENTCONNECTIONS,BANQUET_FLR_6 ZN,ZoneExhaust,1
 Non-Parent Node Connection,BANQUET_FLR_6 ZN RETURN AIR NODE,ZONEHVAC:EQUIPMENTCONNECTIONS,BANQUET_FLR_6 ZN,ZoneReturn,1
 Non-Parent Node Connection,NODE 4,ZONEHVAC:EQUIPMENTCONNECTIONS,BASEMENT ZN,ZoneNode,1
 Non-Parent Node Connection,NODE 6,ZONEHVAC:EQUIPMENTCONNECTIONS,BASEMENT ZN,ZoneInlet,1
 Non-Parent Node Connection,NODE 5,ZONEHVAC:EQUIPMENTCONNECTIONS,BASEMENT ZN,ZoneExhaust,1
 Non-Parent Node Connection,BASEMENT ZN RETURN AIR NODE,ZONEHVAC:EQUIPMENTCONNECTIONS,BASEMENT ZN,ZoneReturn,1
 Non-Parent Node Connection,NODE 7,ZONEHVAC:EQUIPMENTCONNECTIONS,CAFE_FLR_1 ZN,ZoneNode,1
 Non-Parent Node Connection,NODE 9,ZONEHVAC:EQUIPMENTCONNECTIONS,CAFE_FLR_1 ZN,ZoneInlet,1
 Non-Parent Node Connection,NODE 8,ZONEHVAC:EQUIPMENTCONNECTIONS,CAFE_FLR_1 ZN,ZoneExhaust,1
 Non-Parent Node Connection,CAFE_FLR_1 ZN RETURN AIR NODE,ZONEHVAC:EQUIPMENTCONNECTIONS,CAFE_FLR_1 ZN,ZoneReturn,1
 Non-Parent Node Connection,NODE 10,ZONEHVAC:EQUIPMENTCONNECTIONS,CORRIDOR_FLR_3 ZN,ZoneNode,1
 Non-Parent Node Connection,NODE 12,ZONEHVAC:EQUIPMENTCONNECTIONS,CORRIDOR_FLR_3 ZN,ZoneInlet,1
 Non-Parent Node Connection,NODE 11,ZONEHVAC:EQUIPMENTCONNECTIONS,CORRIDOR_FLR_3 ZN,ZoneExhaust,1
 Non-Parent Node Connection,CORRIDOR_FLR_3 ZN RETURN AIR NODE,ZONEHVAC:EQUIPMENTCONNECTIONS,CORRIDOR_FLR_3 ZN,ZoneReturn,1
 Non-Parent Node Connection,NODE 13,ZONEHVAC:EQUIPMENTCONNECTIONS,CORRIDOR_FLR_6 ZN,ZoneNode,1
 Non-Parent Node Connection,NODE 15,ZONEHVAC:EQUIPMENTCONNECTIONS,CORRIDOR_FLR_6 ZN,ZoneInlet,1
 Non-Parent Node Connection,NODE 14,ZONEHVAC:EQUIPMENTCONNECTIONS,CORRIDOR_FLR_6 ZN,ZoneExhaust,1
 Non-Parent Node Connection,CORRIDOR_FLR_6 ZN RETURN AIR NODE,ZONEHVAC:EQUIPMENTCONNECTIONS,CORRIDOR_FLR_6 ZN,ZoneReturn,1
 Non-Parent Node Connection,NODE 16,ZONEHVAC:EQUIPMENTCONNECTIONS,DINING_FLR_6 ZN,ZoneNode,1
 Non-Parent Node Connection,NODE 18,ZONEHVAC:EQUIPMENTCONNECTIONS,DINING_FLR_6 ZN,ZoneInlet,1
 Non-Parent Node Connection,NODE 17,ZONEHVAC:EQUIPMENTCONNECTIONS,DINING_FLR_6 ZN,ZoneExhaust,1
 Non-Parent Node Connection,DINING_FLR_6 ZN RETURN AIR NODE,ZONEHVAC:EQUIPMENTCONNECTIONS,DINING_FLR_6 ZN,ZoneReturn,1
 Non-Parent Node Connection,NODE 19,ZONEHVAC:EQUIPMENTCONNECTIONS,KITCHEN_FLR_6 ZN,ZoneNode,1
 Non-Parent Node Connection,NODE 21,ZONEHVAC:EQUIPMENTCONNECTIONS,KITCHEN_FLR_6 ZN,ZoneInlet,1
 Non-Parent Node Connection,NODE 20,ZONEHVAC:EQUIPMENTCONNECTIONS,KITCHEN_FLR_6 ZN,ZoneExhaust,1
 Non-Parent Node Connection,KITCHEN_FLR_6 ZN RETURN AIR NODE,ZONEHVAC:EQUIPMENTCONNECTIONS,KITCHEN_FLR_6 ZN,ZoneReturn,1
 Non-Parent Node Connection,NODE 22,ZONEHVAC:EQUIPMENTCONNECTIONS,LAUNDRY_FLR_1 ZN,ZoneNode,1
 Non-Parent Node Connection,NODE 24,ZONEHVAC:EQUIPMENTCONNECTIONS,LAUNDRY_FLR_1 ZN,ZoneInlet,1
 Non-Parent Node Connection,NODE 23,ZONEHVAC:EQUIPMENTCONNECTIONS,LAUNDRY_FLR_1 ZN,ZoneExhaust,1
 Non-Parent Node Connection,LAUNDRY_FLR_1 ZN RETURN AIR NODE,ZONEHVAC:EQUIPMENTCONNECTIONS,LAUNDRY_FLR_1 ZN,ZoneReturn,1
 Non-Parent Node Connection,NODE 25,ZONEHVAC:EQUIPMENTCONNECTIONS,LOBBY_FLR_1 ZN,ZoneNode,1
 Non-Parent Node Connection,NODE 27,ZONEHVAC:EQUIPMENTCONNECTIONS,LOBBY_FLR_1 ZN,ZoneInlet,1
 Non-Parent Node Connection,NODE 26,ZONEHVAC:EQUIPMENTCONNECTIONS,LOBBY_FLR_1 ZN,ZoneExhaust,1
 Non-Parent Node Connection,LOBBY_FLR_1 ZN RETURN AIR NODE,ZONEHVAC:EQUIPMENTCONNECTIONS,LOBBY_FLR_1 ZN,ZoneReturn,1
 Non-Parent Node Connection,NODE 28,ZONEHVAC:EQUIPMENTCONNECTIONS,MECH_FLR_1 ZN,ZoneNode,1
 Non-Parent Node Connection,NODE 30,ZONEHVAC:EQUIPMENTCONNECTIONS,MECH_FLR_1 ZN,ZoneInlet,1
 Non-Parent Node Connection,NODE 29,ZONEHVAC:EQUIPMENTCONNECTIONS,MECH_FLR_1 ZN,ZoneExhaust,1
 Non-Parent Node Connection,MECH_FLR_1 ZN RETURN AIR NODE,ZONEHVAC:EQUIPMENTCONNECTIONS,MECH_FLR_1 ZN,ZoneReturn,1
 Non-Parent Node Connection,NODE 31,ZONEHVAC:EQUIPMENTCONNECTIONS,RETAIL_1_FLR_1 ZN,ZoneNode,1
 Non-Parent Node Connection,NODE 33,ZONEHVAC:EQUIPMENTCONNECTIONS,RETAIL_1_FLR_1 ZN,ZoneInlet,1
 Non-Parent Node Connection,NODE 32,ZONEHVAC:EQUIPMENTCONNECTIONS,RETAIL_1_FLR_1 ZN,ZoneExhaust,1
 Non-Parent Node Connection,RETAIL_1_FLR_1 ZN RETURN AIR NODE,ZONEHVAC:EQUIPMENTCONNECTIONS,RETAIL_1_FLR_1 ZN,ZoneReturn,1
 Non-Parent Node Connection,NODE 34,ZONEHVAC:EQUIPMENTCONNECTIONS,RETAIL_2_FLR_1 ZN,ZoneNode,1
 Non-Parent Node Connection,NODE 36,ZONEHVAC:EQUIPMENTCONNECTIONS,RETAIL_2_FLR_1 ZN,ZoneInlet,1
 Non-Parent Node Connection,NODE 35,ZONEHVAC:EQUIPMENTCONNECTIONS,RETAIL_2_FLR_1 ZN,ZoneExhaust,1
 Non-Parent Node Connection,RETAIL_2_FLR_1 ZN RETURN AIR NODE,ZONEHVAC:EQUIPMENTCONNECTIONS,RETAIL_2_FLR_1 ZN,ZoneReturn,1
 Non-Parent Node Connection,NODE 37,ZONEHVAC:EQUIPMENTCONNECTIONS,ROOM_1_FLR_3 ZN,ZoneNode,1
 Non-Parent Node Connection,NODE 39,ZONEHVAC:EQUIPMENTCONNECTIONS,ROOM_1_FLR_3 ZN,ZoneInlet,1
 Non-Parent Node Connection,NODE 38,ZONEHVAC:EQUIPMENTCONNECTIONS,ROOM_1_FLR_3 ZN,ZoneExhaust,1
 Non-Parent Node Connection,ROOM_1_FLR_3 ZN RETURN AIR NODE,ZONEHVAC:EQUIPMENTCONNECTIONS,ROOM_1_FLR_3 ZN,ZoneReturn,1
 Non-Parent Node Connection,NODE 40,ZONEHVAC:EQUIPMENTCONNECTIONS,ROOM_1_FLR_6 ZN,ZoneNode,1
 Non-Parent Node Connection,NODE 42,ZONEHVAC:EQUIPMENTCONNECTIONS,ROOM_1_FLR_6 ZN,ZoneInlet,1
 Non-Parent Node Connection,NODE 41,ZONEHVAC:EQUIPMENTCONNECTIONS,ROOM_1_FLR_6 ZN,ZoneExhaust,1
 Non-Parent Node Connection,ROOM_1_FLR_6 ZN RETURN AIR NODE,ZONEHVAC:EQUIPMENTCONNECTIONS,ROOM_1_FLR_6 ZN,ZoneReturn,1
 Non-Parent Node Connection,NODE 43,ZONEHVAC:EQUIPMENTCONNECTIONS,ROOM_2_FLR_3 ZN,ZoneNode,1
 Non-Parent Node Connection,NODE 45,ZONEHVAC:EQUIPMENTCONNECTIONS,ROOM_2_FLR_3 ZN,ZoneInlet,1
 Non-Parent Node Connection,NODE 44,ZONEHVAC:EQUIPMENTCONNECTIONS,ROOM_2_FLR_3 ZN,ZoneExhaust,1
 Non-Parent Node Connection,ROOM_2_FLR_3 ZN RETURN AIR NODE,ZONEHVAC:EQUIPMENTCONNECTIONS,ROOM_2_FLR_3 ZN,ZoneReturn,1
 Non-Parent Node Connection,NODE 46,ZONEHVAC:EQUIPMENTCONNECTIONS,ROOM_2_FLR_6 ZN,ZoneNode,1
 Non-Parent Node Connection,NODE 48,ZONEHVAC:EQUIPMENTCONNECTIONS,ROOM_2_FLR_6 ZN,ZoneInlet,1
 Non-Parent Node Connection,NODE 47,ZONEHVAC:EQUIPMENTCONNECTIONS,ROOM_2_FLR_6 ZN,ZoneExhaust,1
 Non-Parent Node Connection,ROOM_2_FLR_6 ZN RETURN AIR NODE,ZONEHVAC:EQUIPMENTCONNECTIONS,ROOM_2_FLR_6 ZN,ZoneReturn,1
 Non-Parent Node Connection,NODE 49,ZONEHVAC:EQUIPMENTCONNECTIONS,ROOM_3_MULT19_FLR_3 ZN,ZoneNode,1
 Non-Parent Node Connection,NODE 51,ZONEHVAC:EQUIPMENTCONNECTIONS,ROOM_3_MULT19_FLR_3 ZN,ZoneInlet,1
 Non-Parent Node Connection,NODE 50,ZONEHVAC:EQUIPMENTCONNECTIONS,ROOM_3_MULT19_FLR_3 ZN,ZoneExhaust,1
 Non-Parent Node Connection,ROOM_3_MULT19_FLR_3 ZN RETURN AIR NODE,ZONEHVAC:EQUIPMENTCONNECTIONS,ROOM_3_MULT19_FLR_3 ZN,ZoneReturn,1
 Non-Parent Node Connection,NODE 52,ZONEHVAC:EQUIPMENTCONNECTIONS,ROOM_3_MULT9_FLR_6 ZN,ZoneNode,1
 Non-Parent Node Connection,NODE 54,ZONEHVAC:EQUIPMENTCONNECTIONS,ROOM_3_MULT9_FLR_6 ZN,ZoneInlet,1
 Non-Parent Node Connection,NODE 53,ZONEHVAC:EQUIPMENTCONNECTIONS,ROOM_3_MULT9_FLR_6 ZN,ZoneExhaust,1
 Non-Parent Node Connection,ROOM_3_MULT9_FLR_6 ZN RETURN AIR NODE,ZONEHVAC:EQUIPMENTCONNECTIONS,ROOM_3_MULT9_FLR_6 ZN,ZoneReturn,1
 Non-Parent Node Connection,NODE 55,ZONEHVAC:EQUIPMENTCONNECTIONS,ROOM_4_MULT19_FLR_3 ZN,ZoneNode,1
 Non-Parent Node Connection,NODE 57,ZONEHVAC:EQUIPMENTCONNECTIONS,ROOM_4_MULT19_FLR_3 ZN,ZoneInlet,1
 Non-Parent Node Connection,NODE 56,ZONEHVAC:EQUIPMENTCONNECTIONS,ROOM_4_MULT19_FLR_3 ZN,ZoneExhaust,1
 Non-Parent Node Connection,ROOM_4_MULT19_FLR_3 ZN RETURN AIR NODE,ZONEHVAC:EQUIPMENTCONNECTIONS,ROOM_4_MULT19_FLR_3 ZN,ZoneReturn,1
 Non-Parent Node Connection,NODE 58,ZONEHVAC:EQUIPMENTCONNECTIONS,ROOM_5_FLR_3 ZN,ZoneNode,1
 Non-Parent Node Connection,NODE 60,ZONEHVAC:EQUIPMENTCONNECTIONS,ROOM_5_FLR_3 ZN,ZoneInlet,1
 Non-Parent Node Connection,NODE 59,ZONEHVAC:EQUIPMENTCONNECTIONS,ROOM_5_FLR_3 ZN,ZoneExhaust,1
 Non-Parent Node Connection,ROOM_5_FLR_3 ZN RETURN AIR NODE,ZONEHVAC:EQUIPMENTCONNECTIONS,ROOM_5_FLR_3 ZN,ZoneReturn,1
 Non-Parent Node Connection,NODE 61,ZONEHVAC:EQUIPMENTCONNECTIONS,ROOM_6_FLR_3 ZN,ZoneNode,1
 Non-Parent Node Connection,NODE 63,ZONEHVAC:EQUIPMENTCONNECTIONS,ROOM_6_FLR_3 ZN,ZoneInlet,1
 Non-Parent Node Connection,NODE 62,ZONEHVAC:EQUIPMENTCONNECTIONS,ROOM_6_FLR_3 ZN,ZoneExhaust,1
 Non-Parent Node Connection,ROOM_6_FLR_3 ZN RETURN AIR NODE,ZONEHVAC:EQUIPMENTCONNECTIONS,ROOM_6_FLR_3 ZN,ZoneReturn,1
 Non-Parent Node Connection,NODE 64,ZONEHVAC:EQUIPMENTCONNECTIONS,STORAGE_FLR_1 ZN,ZoneNode,1
 Non-Parent Node Connection,NODE 66,ZONEHVAC:EQUIPMENTCONNECTIONS,STORAGE_FLR_1 ZN,ZoneInlet,1
 Non-Parent Node Connection,NODE 65,ZONEHVAC:EQUIPMENTCONNECTIONS,STORAGE_FLR_1 ZN,ZoneExhaust,1
 Non-Parent Node Connection,STORAGE_FLR_1 ZN RETURN AIR NODE,ZONEHVAC:EQUIPMENTCONNECTIONS,STORAGE_FLR_1 ZN,ZoneReturn,1
 Non-Parent Node Connection,MODEL OUTDOOR AIR NODE,OUTDOORAIR:NODE,OutdoorAir:Node,OutdoorAir,1
 Non-Parent Node Connection,NODE 3,ZONEHVAC:IDEALLOADSAIRSYSTEM,ZONE HVAC IDEAL LOADS AIR SYSTEM 1,Outlet,1
 Non-Parent Node Connection,NODE 2,ZONEHVAC:IDEALLOADSAIRSYSTEM,ZONE HVAC IDEAL LOADS AIR SYSTEM 1,Inlet,1
 Non-Parent Node Connection,ZONE HVAC IDEAL LOADS AIR SYSTEM 1 OUTDOOR AIR INLET NODE,ZONEHVAC:IDEALLOADSAIRSYSTEM,ZONE HVAC IDEAL LOADS AIR SYSTEM 1,Outlet,1
 Non-Parent Node Connection,ZONE HVAC IDEAL LOADS AIR SYSTEM 1 OUTDOOR AIR INLET NODE,OUTDOORAIR:NODE,OutdoorAir:Node,OutdoorAir,2
 Non-Parent Node Connection,NODE 6,ZONEHVAC:IDEALLOADSAIRSYSTEM,ZONE HVAC IDEAL LOADS AIR SYSTEM 2,Outlet,1
 Non-Parent Node Connection,NODE 5,ZONEHVAC:IDEALLOADSAIRSYSTEM,ZONE HVAC IDEAL LOADS AIR SYSTEM 2,Inlet,1
 Non-Parent Node Connection,ZONE HVAC IDEAL LOADS AIR SYSTEM 2 OUTDOOR AIR INLET NODE,ZONEHVAC:IDEALLOADSAIRSYSTEM,ZONE HVAC IDEAL LOADS AIR SYSTEM 2,Outlet,1
 Non-Parent Node Connection,ZONE HVAC IDEAL LOADS AIR SYSTEM 2 OUTDOOR AIR INLET NODE,OUTDOORAIR:NODE,OutdoorAir:Node,OutdoorAir,3
 Non-Parent Node Connection,NODE 9,ZONEHVAC:IDEALLOADSAIRSYSTEM,ZONE HVAC IDEAL LOADS AIR SYSTEM 3,Outlet,1
 Non-Parent Node Connection,NODE 8,ZONEHVAC:IDEALLOADSAIRSYSTEM,ZONE HVAC IDEAL LOADS AIR SYSTEM 3,Inlet,1
 Non-Parent Node Connection,ZONE HVAC IDEAL LOADS AIR SYSTEM 3 OUTDOOR AIR INLET NODE,ZONEHVAC:IDEALLOADSAIRSYSTEM,ZONE HVAC IDEAL LOADS AIR SYSTEM 3,Outlet,1
 Non-Parent Node Connection,ZONE HVAC IDEAL LOADS AIR SYSTEM 3 OUTDOOR AIR INLET NODE,OUTDOORAIR:NODE,OutdoorAir:Node,OutdoorAir,4
 Non-Parent Node Connection,NODE 12,ZONEHVAC:IDEALLOADSAIRSYSTEM,ZONE HVAC IDEAL LOADS AIR SYSTEM 4,Outlet,1
 Non-Parent Node Connection,NODE 11,ZONEHVAC:IDEALLOADSAIRSYSTEM,ZONE HVAC IDEAL LOADS AIR SYSTEM 4,Inlet,1
 Non-Parent Node Connection,ZONE HVAC IDEAL LOADS AIR SYSTEM 4 OUTDOOR AIR INLET NODE,ZONEHVAC:IDEALLOADSAIRSYSTEM,ZONE HVAC IDEAL LOADS AIR SYSTEM 4,Outlet,1
 Non-Parent Node Connection,ZONE HVAC IDEAL LOADS AIR SYSTEM 4 OUTDOOR AIR INLET NODE,OUTDOORAIR:NODE,OutdoorAir:Node,OutdoorAir,5
 Non-Parent Node Connection,NODE 15,ZONEHVAC:IDEALLOADSAIRSYSTEM,ZONE HVAC IDEAL LOADS AIR SYSTEM 5,Outlet,1
 Non-Parent Node Connection,NODE 14,ZONEHVAC:IDEALLOADSAIRSYSTEM,ZONE HVAC IDEAL LOADS AIR SYSTEM 5,Inlet,1
 Non-Parent Node Connection,ZONE HVAC IDEAL LOADS AIR SYSTEM 5 OUTDOOR AIR INLET NODE,ZONEHVAC:IDEALLOADSAIRSYSTEM,ZONE HVAC IDEAL LOADS AIR SYSTEM 5,Outlet,1
 Non-Parent Node Connection,ZONE HVAC IDEAL LOADS AIR SYSTEM 5 OUTDOOR AIR INLET NODE,OUTDOORAIR:NODE,OutdoorAir:Node,OutdoorAir,6
 Non-Parent Node Connection,NODE 18,ZONEHVAC:IDEALLOADSAIRSYSTEM,ZONE HVAC IDEAL LOADS AIR SYSTEM 6,Outlet,1
 Non-Parent Node Connection,NODE 17,ZONEHVAC:IDEALLOADSAIRSYSTEM,ZONE HVAC IDEAL LOADS AIR SYSTEM 6,Inlet,1
 Non-Parent Node Connection,ZONE HVAC IDEAL LOADS AIR SYSTEM 6 OUTDOOR AIR INLET NODE,ZONEHVAC:IDEALLOADSAIRSYSTEM,ZONE HVAC IDEAL LOADS AIR SYSTEM 6,Outlet,1
 Non-Parent Node Connection,ZONE HVAC IDEAL LOADS AIR SYSTEM 6 OUTDOOR AIR INLET NODE,OUTDOORAIR:NODE,OutdoorAir:Node,OutdoorAir,7
 Non-Parent Node Connection,NODE 21,ZONEHVAC:IDEALLOADSAIRSYSTEM,ZONE HVAC IDEAL LOADS AIR SYSTEM 7,Outlet,1
 Non-Parent Node Connection,NODE 20,ZONEHVAC:IDEALLOADSAIRSYSTEM,ZONE HVAC IDEAL LOADS AIR SYSTEM 7,Inlet,1
 Non-Parent Node Connection,ZONE HVAC IDEAL LOADS AIR SYSTEM 7 OUTDOOR AIR INLET NODE,ZONEHVAC:IDEALLOADSAIRSYSTEM,ZONE HVAC IDEAL LOADS AIR SYSTEM 7,Outlet,1
 Non-Parent Node Connection,ZONE HVAC IDEAL LOADS AIR SYSTEM 7 OUTDOOR AIR INLET NODE,OUTDOORAIR:NODE,OutdoorAir:Node,OutdoorAir,8
 Non-Parent Node Connection,NODE 24,ZONEHVAC:IDEALLOADSAIRSYSTEM,ZONE HVAC IDEAL LOADS AIR SYSTEM 8,Outlet,1
 Non-Parent Node Connection,NODE 23,ZONEHVAC:IDEALLOADSAIRSYSTEM,ZONE HVAC IDEAL LOADS AIR SYSTEM 8,Inlet,1
 Non-Parent Node Connection,ZONE HVAC IDEAL LOADS AIR SYSTEM 8 OUTDOOR AIR INLET NODE,ZONEHVAC:IDEALLOADSAIRSYSTEM,ZONE HVAC IDEAL LOADS AIR SYSTEM 8,Outlet,1
 Non-Parent Node Connection,ZONE HVAC IDEAL LOADS AIR SYSTEM 8 OUTDOOR AIR INLET NODE,OUTDOORAIR:NODE,OutdoorAir:Node,OutdoorAir,9
 Non-Parent Node Connection,NODE 27,ZONEHVAC:IDEALLOADSAIRSYSTEM,ZONE HVAC IDEAL LOADS AIR SYSTEM 9,Outlet,1
 Non-Parent Node Connection,NODE 26,ZONEHVAC:IDEALLOADSAIRSYSTEM,ZONE HVAC IDEAL LOADS AIR SYSTEM 9,Inlet,1
 Non-Parent Node Connection,ZONE HVAC IDEAL LOADS AIR SYSTEM 9 OUTDOOR AIR INLET NODE,ZONEHVAC:IDEALLOADSAIRSYSTEM,ZONE HVAC IDEAL LOADS AIR SYSTEM 9,Outlet,1
 Non-Parent Node Connection,ZONE HVAC IDEAL LOADS AIR SYSTEM 9 OUTDOOR AIR INLET NODE,OUTDOORAIR:NODE,OutdoorAir:Node,OutdoorAir,10
 Non-Parent Node Connection,NODE 30,ZONEHVAC:IDEALLOADSAIRSYSTEM,ZONE HVAC IDEAL LOADS AIR SYSTEM 10,Outlet,1
 Non-Parent Node Connection,NODE 29,ZONEHVAC:IDEALLOADSAIRSYSTEM,ZONE HVAC IDEAL LOADS AIR SYSTEM 10,Inlet,1
 Non-Parent Node Connection,ZONE HVAC IDEAL LOADS AIR SYSTEM 10 OUTDOOR AIR INLET NODE,ZONEHVAC:IDEALLOADSAIRSYSTEM,ZONE HVAC IDEAL LOADS AIR SYSTEM 10,Outlet,1
 Non-Parent Node Connection,ZONE HVAC IDEAL LOADS AIR SYSTEM 10 OUTDOOR AIR INLET NODE,OUTDOORAIR:NODE,OutdoorAir:Node,OutdoorAir,11
 Non-Parent Node Connection,NODE 33,ZONEHVAC:IDEALLOADSAIRSYSTEM,ZONE HVAC IDEAL LOADS AIR SYSTEM 11,Outlet,1
 Non-Parent Node Connection,NODE 32,ZONEHVAC:IDEALLOADSAIRSYSTEM,ZONE HVAC IDEAL LOADS AIR SYSTEM 11,Inlet,1
 Non-Parent Node Connection,ZONE HVAC IDEAL LOADS AIR SYSTEM 11 OUTDOOR AIR INLET NODE,ZONEHVAC:IDEALLOADSAIRSYSTEM,ZONE HVAC IDEAL LOADS AIR SYSTEM 11,Outlet,1
 Non-Parent Node Connection,ZONE HVAC IDEAL LOADS AIR SYSTEM 11 OUTDOOR AIR INLET NODE,OUTDOORAIR:NODE,OutdoorAir:Node,OutdoorAir,12
 Non-Parent Node Connection,NODE 36,ZONEHVAC:IDEALLOADSAIRSYSTEM,ZONE HVAC IDEAL LOADS AIR SYSTEM 12,Outlet,1
 Non-Parent Node Connection,NODE 35,ZONEHVAC:IDEALLOADSAIRSYSTEM,ZONE HVAC IDEAL LOADS AIR SYSTEM 12,Inlet,1
 Non-Parent Node Connection,ZONE HVAC IDEAL LOADS AIR SYSTEM 12 OUTDOOR AIR INLET NODE,ZONEHVAC:IDEALLOADSAIRSYSTEM,ZONE HVAC IDEAL LOADS AIR SYSTEM 12,Outlet,1
 Non-Parent Node Connection,ZONE HVAC IDEAL LOADS AIR SYSTEM 12 OUTDOOR AIR INLET NODE,OUTDOORAIR:NODE,OutdoorAir:Node,OutdoorAir,13
 Non-Parent Node Connection,NODE 39,ZONEHVAC:IDEALLOADSAIRSYSTEM,ZONE HVAC IDEAL LOADS AIR SYSTEM 13,Outlet,1
 Non-Parent Node Connection,NODE 38,ZONEHVAC:IDEALLOADSAIRSYSTEM,ZONE HVAC IDEAL LOADS AIR SYSTEM 13,Inlet,1
 Non-Parent Node Connection,ZONE HVAC IDEAL LOADS AIR SYSTEM 13 OUTDOOR AIR INLET NODE,ZONEHVAC:IDEALLOADSAIRSYSTEM,ZONE HVAC IDEAL LOADS AIR SYSTEM 13,Outlet,1
 Non-Parent Node Connection,ZONE HVAC IDEAL LOADS AIR SYSTEM 13 OUTDOOR AIR INLET NODE,OUTDOORAIR:NODE,OutdoorAir:Node,OutdoorAir,14
 Non-Parent Node Connection,NODE 42,ZONEHVAC:IDEALLOADSAIRSYSTEM,ZONE HVAC IDEAL LOADS AIR SYSTEM 14,Outlet,1
 Non-Parent Node Connection,NODE 41,ZONEHVAC:IDEALLOADSAIRSYSTEM,ZONE HVAC IDEAL LOADS AIR SYSTEM 14,Inlet,1
 Non-Parent Node Connection,ZONE HVAC IDEAL LOADS AIR SYSTEM 14 OUTDOOR AIR INLET NODE,ZONEHVAC:IDEALLOADSAIRSYSTEM,ZONE HVAC IDEAL LOADS AIR SYSTEM 14,Outlet,1
 Non-Parent Node Connection,ZONE HVAC IDEAL LOADS AIR SYSTEM 14 OUTDOOR AIR INLET NODE,OUTDOORAIR:NODE,OutdoorAir:Node,OutdoorAir,15
 Non-Parent Node Connection,NODE 45,ZONEHVAC:IDEALLOADSAIRSYSTEM,ZONE HVAC IDEAL LOADS AIR SYSTEM 15,Outlet,1
 Non-Parent Node Connection,NODE 44,ZONEHVAC:IDEALLOADSAIRSYSTEM,ZONE HVAC IDEAL LOADS AIR SYSTEM 15,Inlet,1
 Non-Parent Node Connection,ZONE HVAC IDEAL LOADS AIR SYSTEM 15 OUTDOOR AIR INLET NODE,ZONEHVAC:IDEALLOADSAIRSYSTEM,ZONE HVAC IDEAL LOADS AIR SYSTEM 15,Outlet,1
 Non-Parent Node Connection,ZONE HVAC IDEAL LOADS AIR SYSTEM 15 OUTDOOR AIR INLET NODE,OUTDOORAIR:NODE,OutdoorAir:Node,OutdoorAir,16
 Non-Parent Node Connection,NODE 48,ZONEHVAC:IDEALLOADSAIRSYSTEM,ZONE HVAC IDEAL LOADS AIR SYSTEM 16,Outlet,1
 Non-Parent Node Connection,NODE 47,ZONEHVAC:IDEALLOADSAIRSYSTEM,ZONE HVAC IDEAL LOADS AIR SYSTEM 16,Inlet,1
 Non-Parent Node Connection,ZONE HVAC IDEAL LOADS AIR SYSTEM 16 OUTDOOR AIR INLET NODE,ZONEHVAC:IDEALLOADSAIRSYSTEM,ZONE HVAC IDEAL LOADS AIR SYSTEM 16,Outlet,1
 Non-Parent Node Connection,ZONE HVAC IDEAL LOADS AIR SYSTEM 16 OUTDOOR AIR INLET NODE,OUTDOORAIR:NODE,OutdoorAir:Node,OutdoorAir,17
 Non-Parent Node Connection,NODE 51,ZONEHVAC:IDEALLOADSAIRSYSTEM,ZONE HVAC IDEAL LOADS AIR SYSTEM 17,Outlet,1
 Non-Parent Node Connection,NODE 50,ZONEHVAC:IDEALLOADSAIRSYSTEM,ZONE HVAC IDEAL LOADS AIR SYSTEM 17,Inlet,1
 Non-Parent Node Connection,ZONE HVAC IDEAL LOADS AIR SYSTEM 17 OUTDOOR AIR INLET NODE,ZONEHVAC:IDEALLOADSAIRSYSTEM,ZONE HVAC IDEAL LOADS AIR SYSTEM 17,Outlet,1
 Non-Parent Node Connection,ZONE HVAC IDEAL LOADS AIR SYSTEM 17 OUTDOOR AIR INLET NODE,OUTDOORAIR:NODE,OutdoorAir:Node,OutdoorAir,18
 Non-Parent Node Connection,NODE 54,ZONEHVAC:IDEALLOADSAIRSYSTEM,ZONE HVAC IDEAL LOADS AIR SYSTEM 18,Outlet,1
 Non-Parent Node Connection,NODE 53,ZONEHVAC:IDEALLOADSAIRSYSTEM,ZONE HVAC IDEAL LOADS AIR SYSTEM 18,Inlet,1
 Non-Parent Node Connection,ZONE HVAC IDEAL LOADS AIR SYSTEM 18 OUTDOOR AIR INLET NODE,ZONEHVAC:IDEALLOADSAIRSYSTEM,ZONE HVAC IDEAL LOADS AIR SYSTEM 18,Outlet,1
 Non-Parent Node Connection,ZONE HVAC IDEAL LOADS AIR SYSTEM 18 OUTDOOR AIR INLET NODE,OUTDOORAIR:NODE,OutdoorAir:Node,OutdoorAir,19
 Non-Parent Node Connection,NODE 57,ZONEHVAC:IDEALLOADSAIRSYSTEM,ZONE HVAC IDEAL LOADS AIR SYSTEM 19,Outlet,1
 Non-Parent Node Connection,NODE 56,ZONEHVAC:IDEALLOADSAIRSYSTEM,ZONE HVAC IDEAL LOADS AIR SYSTEM 19,Inlet,1
 Non-Parent Node Connection,ZONE HVAC IDEAL LOADS AIR SYSTEM 19 OUTDOOR AIR INLET NODE,ZONEHVAC:IDEALLOADSAIRSYSTEM,ZONE HVAC IDEAL LOADS AIR SYSTEM 19,Outlet,1
 Non-Parent Node Connection,ZONE HVAC IDEAL LOADS AIR SYSTEM 19 OUTDOOR AIR INLET NODE,OUTDOORAIR:NODE,OutdoorAir:Node,OutdoorAir,20
 Non-Parent Node Connection,NODE 60,ZONEHVAC:IDEALLOADSAIRSYSTEM,ZONE HVAC IDEAL LOADS AIR SYSTEM 20,Outlet,1
 Non-Parent Node Connection,NODE 59,ZONEHVAC:IDEALLOADSAIRSYSTEM,ZONE HVAC IDEAL LOADS AIR SYSTEM 20,Inlet,1
 Non-Parent Node Connection,ZONE HVAC IDEAL LOADS AIR SYSTEM 20 OUTDOOR AIR INLET NODE,ZONEHVAC:IDEALLOADSAIRSYSTEM,ZONE HVAC IDEAL LOADS AIR SYSTEM 20,Outlet,1
 Non-Parent Node Connection,ZONE HVAC IDEAL LOADS AIR SYSTEM 20 OUTDOOR AIR INLET NODE,OUTDOORAIR:NODE,OutdoorAir:Node,OutdoorAir,21
 Non-Parent Node Connection,NODE 63,ZONEHVAC:IDEALLOADSAIRSYSTEM,ZONE HVAC IDEAL LOADS AIR SYSTEM 21,Outlet,1
 Non-Parent Node Connection,NODE 62,ZONEHVAC:IDEALLOADSAIRSYSTEM,ZONE HVAC IDEAL LOADS AIR SYSTEM 21,Inlet,1
 Non-Parent Node Connection,ZONE HVAC IDEAL LOADS AIR SYSTEM 21 OUTDOOR AIR INLET NODE,ZONEHVAC:IDEALLOADSAIRSYSTEM,ZONE HVAC IDEAL LOADS AIR SYSTEM 21,Outlet,1
 Non-Parent Node Connection,ZONE HVAC IDEAL LOADS AIR SYSTEM 21 OUTDOOR AIR INLET NODE,OUTDOORAIR:NODE,OutdoorAir:Node,OutdoorAir,22
 Non-Parent Node Connection,NODE 66,ZONEHVAC:IDEALLOADSAIRSYSTEM,ZONE HVAC IDEAL LOADS AIR SYSTEM 22,Outlet,1
 Non-Parent Node Connection,NODE 65,ZONEHVAC:IDEALLOADSAIRSYSTEM,ZONE HVAC IDEAL LOADS AIR SYSTEM 22,Inlet,1
 Non-Parent Node Connection,ZONE HVAC IDEAL LOADS AIR SYSTEM 22 OUTDOOR AIR INLET NODE,ZONEHVAC:IDEALLOADSAIRSYSTEM,ZONE HVAC IDEAL LOADS AIR SYSTEM 22,Outlet,1
 Non-Parent Node Connection,ZONE HVAC IDEAL LOADS AIR SYSTEM 22 OUTDOOR AIR INLET NODE,OUTDOORAIR:NODE,OutdoorAir:Node,OutdoorAir,23
