Program Version,EnergyPlus, Version 8.9.0-eba93e8e1b, YMD=2018.09.18 17:19
! <Version>, Version ID
 Version, 8.9
! <Timesteps per Hour>, #TimeSteps, Minutes per TimeStep {minutes}
 Timesteps per Hour,  6, 10
! <System Convergence Limits>, Minimum System TimeStep {minutes}, Max HVAC Iterations, Minimum Plant Iterations, Maximum Plant Iterations
 System Convergence Limits, 1, 20, 2, 8
! <Simulation Control>, Do Zone Sizing, Do System Sizing, Do Plant Sizing, Do Design Days, Do Weather Simulation, Do HVAC Sizing Simulation
 Simulation Control, Yes, Yes, Yes, Yes, No, No
! <Output Reporting Tolerances>, Tolerance for Time Heating Setpoint Not Met, Tolerance for Zone Cooling Setpoint Not Met Time
 Output Reporting Tolerances, 0.200, 0.200, 
! <Site:GroundTemperature:BuildingSurface>,Jan{C},Feb{C},Mar{C},Apr{C},May{C},Jun{C},Jul{C},Aug{C},Sep{C},Oct{C},Nov{C},Dec{C}
 Site:GroundTemperature:BuildingSurface,  19.53,  19.50,  19.54,  19.60,  20.00,  21.64,  22.23,  22.38,  21.45,  20.12,  19.80,  19.63
! <Site:GroundTemperature:FCfactorMethod>,Jan{C},Feb{C},Mar{C},Apr{C},May{C},Jun{C},Jul{C},Aug{C},Sep{C},Oct{C},Nov{C},Dec{C}
 Site:GroundTemperature:FCfactorMethod,   4.64,   4.08,   5.08,   6.66,  10.79,  13.98,  16.13,  16.78,  15.67,  13.19,   9.89,   6.82
! <Site:GroundTemperature:Shallow>,Jan{C},Feb{C},Mar{C},Apr{C},May{C},Jun{C},Jul{C},Aug{C},Sep{C},Oct{C},Nov{C},Dec{C}
 Site:GroundTemperature:Shallow,  13.00,  13.00,  13.00,  13.00,  13.00,  13.00,  13.00,  13.00,  13.00,  13.00,  13.00,  13.00
! <Site:GroundTemperature:Deep>,Jan{C},Feb{C},Mar{C},Apr{C},May{C},Jun{C},Jul{C},Aug{C},Sep{C},Oct{C},Nov{C},Dec{C}
 Site:GroundTemperature:Deep,  16.00,  16.00,  16.00,  16.00,  16.00,  16.00,  16.00,  16.00,  16.00,  16.00,  16.00,  16.00
! <Site:GroundReflectance>,Jan{dimensionless},Feb{dimensionless},Mar{dimensionless},Apr{dimensionless},May{dimensionless},Jun{dimensionless},Jul{dimensionless},Aug{dimensionless},Sep{dimensionless},Oct{dimensionless},Nov{dimensionless},Dec{dimensionless}
 Site:GroundReflectance,  0.20,  0.20,  0.20,  0.20,  0.20,  0.20,  0.20,  0.20,  0.20,  0.20,  0.20,  0.20
! <Site:GroundReflectance:SnowModifier>, Normal, Daylighting {dimensionless}
 Site:GroundReflectance:SnowModifier,   1.000,   1.000
! <Site:GroundReflectance:Snow>,Jan{dimensionless},Feb{dimensionless},Mar{dimensionless},Apr{dimensionless},May{dimensionless},Jun{dimensionless},Jul{dimensionless},Aug{dimensionless},Sep{dimensionless},Oct{dimensionless},Nov{dimensionless},Dec{dimensionless}
 Site:GroundReflectance:Snow,  0.20,  0.20,  0.20,  0.20,  0.20,  0.20,  0.20,  0.20,  0.20,  0.20,  0.20,  0.20
! <Site:GroundReflectance:Snow:Daylighting>,Jan{dimensionless},Feb{dimensionless},Mar{dimensionless},Apr{dimensionless},May{dimensionless},Jun{dimensionless},Jul{dimensionless},Aug{dimensionless},Sep{dimensionless},Oct{dimensionless},Nov{dimensionless},Dec{dimensionless}
 Site:GroundReflectance:Snow:Daylighting,  0.20,  0.20,  0.20,  0.20,  0.20,  0.20,  0.20,  0.20,  0.20,  0.20,  0.20,  0.20
! <Environment:Weather Station>,Wind Sensor Height Above Ground {m},Wind Speed Profile Exponent {},Wind Speed Profile Boundary Layer Thickness {m},Air Temperature Sensor Height Above Ground {m},Wind Speed Modifier Coefficient-Internal,Temperature Modifier Coefficient-Internal
Environment:Weather Station,10.000,0.140,270.000,1.500,1.586,9.750E-003
! <Site:Location>, Location Name, Latitude {N+/S- Deg}, Longitude {E+/W- Deg},  Time Zone Number {GMT+/-}, Elevation {m},  Standard Pressure at Elevation {Pa}, Standard RhoAir at Elevation
Site:Location,Vancouver Intl AP BC CAN CWEC2016 WMO#=718920,49.20,-123.18,-8.00,4.30,101273,1.2037
! <Building Information>, Building Name,North Axis {deg},Terrain,  Loads Convergence Tolerance Value,Temperature Convergence Tolerance Value,  Solar Distribution,Maximum Number of Warmup Days,Minimum Number of Warmup Days
 Building Information,LargeHotel-CAN_BC_Vancouver.Intl.AP.718920_CWEC2016.epw created: 2018-09-18 17:19:42 +0000,0.000,City,4.00000E-002,0.20000,FullInteriorAndExterior,25,6
! <Inside Convection Algorithm>, Algorithm {Simple | TARP | CeilingDiffuser | AdaptiveConvectionAlgorithm}
Inside Convection Algorithm,TARP
! <Outside Convection Algorithm>, Algorithm {SimpleCombined | TARP | MoWitt | DOE-2 | AdaptiveConvectionAlgorithm}
Outside Convection Algorithm,TARP
! <Sky Radiance Distribution>, Value {Anisotropic}
Sky Radiance Distribution,Anisotropic
! <Zone Air Solution Algorithm>, Value {ThirdOrderBackwardDifference | AnalyticalSolution | EulerMethod}
 Zone Air Solution Algorithm, ThirdOrderBackwardDifference
! <Zone Air Carbon Dioxide Balance Simulation>, Simulation {Yes/No}, Carbon Dioxide Concentration
 Zone Air Carbon Dioxide Balance Simulation, No,N/A
! <Zone Air Generic Contaminant Balance Simulation>, Simulation {Yes/No}, Generic Contaminant Concentration
 Zone Air Generic Contaminant Balance Simulation, No,N/A
! <Zone Air Mass Flow Balance Simulation>, Enforce Mass Balance, Adjust Zone Mixing, Adjust Zone Infiltration {AddInfiltration | AdjustInfiltration | None}, Infiltration Zones {MixingSourceZonesOnly | AllZones}
 Zone Air Mass Flow Balance Simulation, No,N/A,N/A,N/A
! <HVACSystemRootFindingAlgorithm>, Value {RegulaFalsi | Bisection | BisectionThenRegulaFalsi | RegulaFalsiThenBisection}
 HVACSystemRootFindingAlgorithm, RegulaFalsi
! <Environment:Site Atmospheric Variation>,Wind Speed Profile Exponent {},Wind Speed Profile Boundary Layer Thickness {m},Air Temperature Gradient Coefficient {K/m}
Environment:Site Atmospheric Variation,0.330,460.000,6.500000E-003
! <Surface Geometry>,Starting Corner,Vertex Input Direction,Coordinate System,Daylight Reference Point Coordinate System,Rectangular (Simple) Surface Coordinate System
 Surface Geometry,UpperLeftCorner,Counterclockwise,RelativeCoordinateSystem,RelativeCoordinateSystem,RelativeToZoneOrigin
! <Surface Heat Transfer Algorithm>, Value {CTF - ConductionTransferFunction | EMPD - MoisturePenetrationDepthConductionTransferFunction | CondFD - ConductionFiniteDifference | HAMT - CombinedHeatAndMoistureFiniteElement} - Description,Inside Surface Max Temperature Limit{C}, Surface Convection Coefficient Lower Limit {W/m2-K}, Surface Convection Coefficient Upper Limit {W/m2-K}
Surface Heat Transfer Algorithm, CTF - ConductionTransferFunction,200,0.10,1000.0
! <Shading Summary>, Number of Fixed Detached Shades, Number of Building Detached Shades, Number of Attached Shades
 Shading Summary,0,0,0
! <Zone Summary>, Number of Zones, Number of Zone Surfaces, Number of SubSurfaces
 Zone Summary,22,213,30
! <Zone Information>,Zone Name,North Axis {deg},Origin X-Coordinate {m},Origin Y-Coordinate {m},Origin Z-Coordinate {m},Centroid X-Coordinate {m},Centroid Y-Coordinate {m},Centroid Z-Coordinate {m},Type,Zone Multiplier,Zone List Multiplier,Minimum X {m},Maximum X {m},Minimum Y {m},Maximum Y {m},Minimum Z {m},Maximum Z {m},Ceiling Height {m},Volume {m3},Zone Inside Convection Algorithm {Simple-Detailed-CeilingDiffuser-TrombeWall},Zone Outside Convection Algorithm {Simple-Detailed-Tarp-MoWitt-DOE-2-BLAST}, Floor Area {m2},Exterior Gross Wall Area {m2},Exterior Net Wall Area {m2},Exterior Window Area {m2}, Number of Surfaces, Number of SubSurfaces, Number of Shading SubSurfaces,  Part of Total Building Area
 Zone Information, BANQUET_FLR_6 ZN,0.0,0.00,0.00,0.00,26.37,17.68,17.68,1,1,1,10.36,42.37,12.50,22.86,16.15,19.20,3.05,1010.89,TARP,TARP,331.66,97.55,65.34,32.21,6,1,0,Yes
 Zone Information, BASEMENT ZN,0.0,0.00,0.00,0.00,41.45,11.51,-1.22,1,1,1,0.00,86.56,0.00,22.86,-2.44,0.00,2.44,4826.37,TARP,TARP,1978.83,0.00,0.00,0.00,13,0,0,Yes
 Zone Information, CAFE_FLR_1 ZN,0.0,0.00,0.00,0.00,70.26,2.90,1.98,1,1,1,53.95,86.56,0.00,5.79,0.00,3.96,3.96,748.35,TARP,TARP,188.86,152.17,86.55,65.62,7,1,0,Yes
 Zone Information, CORRIDOR_FLR_3 ZN,0.0,0.00,0.00,0.00,43.28,14.33,8.53,1,4,1,4.57,81.99,5.79,22.86,7.01,10.06,3.05,1186.91,TARP,TARP,389.40,48.31,32.37,15.94,22,4,0,Yes
 Zone Information, CORRIDOR_FLR_6 ZN,0.0,0.00,0.00,0.00,41.51,13.35,17.68,1,1,1,4.57,81.99,5.79,22.86,16.15,19.20,3.05,1256.16,TARP,TARP,412.12,85.47,57.25,28.22,18,3,0,Yes
 Zone Information, DINING_FLR_6 ZN,0.0,0.00,0.00,0.00,63.55,17.68,17.68,1,1,1,47.55,79.55,12.50,22.86,16.15,19.20,3.05,1010.89,TARP,TARP,331.66,97.55,65.34,32.21,6,1,0,Yes
 Zone Information, KITCHEN_FLR_6 ZN,0.0,0.00,0.00,0.00,82.99,14.11,17.68,1,1,1,79.55,86.56,5.79,22.86,16.15,19.20,3.05,314.87,TARP,TARP,103.30,87.33,60.95,26.38,8,3,0,Yes
 Zone Information, LAUNDRY_FLR_1 ZN,0.0,0.00,0.00,0.00,84.28,14.33,1.98,1,1,1,81.99,86.56,5.79,22.86,0.00,3.96,3.96,309.22,TARP,TARP,78.04,85.75,85.75,0.00,6,0,0,Yes
 Zone Information, LOBBY_FLR_1 ZN,0.0,0.00,0.00,0.00,38.29,12.45,1.98,1,1,1,0.00,81.99,0.00,22.86,0.00,3.96,3.96,5183.56,TARP,TARP,1308.19,434.79,349.55,85.24,18,1,0,Yes
 Zone Information, MECH_FLR_1 ZN,0.0,0.00,0.00,0.00,61.87,17.68,1.98,1,1,1,53.95,69.80,12.50,22.86,0.00,3.96,3.96,650.80,TARP,TARP,164.24,62.80,62.80,0.00,6,0,0,Yes
 Zone Information, RETAIL_1_FLR_1 ZN,0.0,0.00,0.00,0.00,5.79,2.90,1.98,1,1,1,0.00,11.58,0.00,5.79,0.00,3.96,3.96,265.76,TARP,TARP,67.07,68.84,45.54,23.30,6,1,0,Yes
 Zone Information, RETAIL_2_FLR_1 ZN,0.0,0.00,0.00,0.00,5.79,9.14,1.98,1,1,1,0.00,11.58,5.79,12.50,0.00,3.96,3.96,307.76,TARP,TARP,77.67,26.57,26.57,0.00,6,0,0,Yes
 Zone Information, ROOM_1_FLR_3 ZN,0.0,0.00,0.00,0.00,2.29,10.06,8.53,1,4,1,0.00,4.57,5.79,14.33,7.01,10.06,3.05,118.94,TARP,TARP,39.02,39.95,26.77,13.18,6,2,0,Yes
 Zone Information, ROOM_1_FLR_6 ZN,0.0,0.00,0.00,0.00,2.29,10.06,17.68,1,1,1,0.00,4.57,5.79,14.33,16.15,19.20,3.05,118.94,TARP,TARP,39.02,39.95,26.76,13.19,7,2,0,Yes
 Zone Information, ROOM_2_FLR_3 ZN,0.0,0.00,0.00,0.00,2.29,18.59,8.53,1,4,1,0.00,4.57,14.33,22.86,7.01,10.06,3.05,118.93,TARP,TARP,39.02,39.95,26.77,13.18,6,2,0,Yes
 Zone Information, ROOM_2_FLR_6 ZN,0.0,0.00,0.00,0.00,2.29,18.59,17.68,1,1,1,0.00,4.57,14.33,22.86,16.15,19.20,3.05,118.93,TARP,TARP,39.02,39.95,26.76,13.19,6,2,0,Yes
 Zone Information, ROOM_3_MULT19_FLR_3 ZN,0.0,0.00,0.00,0.00,8.53,9.14,8.53,1,76,1,6.71,10.36,5.79,12.50,7.01,10.06,3.05,74.75,TARP,TARP,24.52,11.15,7.47,3.68,6,1,0,Yes
 Zone Information, ROOM_3_MULT9_FLR_6 ZN,0.0,0.00,0.00,0.00,7.93,7.62,17.68,1,9,1,4.57,11.28,5.79,9.45,16.15,19.20,3.05,74.77,TARP,TARP,24.53,20.44,13.69,6.75,6,1,0,Yes
 Zone Information, ROOM_4_MULT19_FLR_3 ZN,0.0,0.00,0.00,0.00,12.19,19.51,8.53,1,76,1,10.36,14.02,16.15,22.86,7.01,10.06,3.05,74.77,TARP,TARP,24.53,11.15,7.47,3.68,6,1,0,Yes
 Zone Information, ROOM_5_FLR_3 ZN,0.0,0.00,0.00,0.00,84.28,10.06,8.53,1,4,1,81.99,86.56,5.79,14.33,7.01,10.06,3.05,118.94,TARP,TARP,39.02,39.95,26.77,13.18,6,2,0,Yes
 Zone Information, ROOM_6_FLR_3 ZN,0.0,0.00,0.00,0.00,84.28,18.59,8.53,1,4,1,81.99,86.56,14.33,22.86,7.01,10.06,3.05,118.93,TARP,TARP,39.02,39.95,26.77,13.18,6,2,0,Yes
 Zone Information, STORAGE_FLR_1 ZN,0.0,0.00,0.00,0.00,74.37,17.68,1.98,1,1,1,69.80,78.94,12.50,22.86,0.00,3.96,3.96,375.47,TARP,TARP,94.76,36.23,36.23,0.00,6,0,0,Yes
! <Zone Internal Gains Nominal>,Zone Name, Floor Area {m2},# Occupants,Area per Occupant {m2/person},Occupant per Area {person/m2},Interior Lighting {W/m2},Electric Load {W/m2},Gas Load {W/m2},Other Load {W/m2},Hot Water Eq {W/m2},Steam Equipment {W/m2},Sum Loads per Area {W/m2},Outdoor Controlled Baseboard Heat
 Zone Internal Gains Nominal, BANQUET_FLR_6 ZN,331.66,33.2,9.996,0.100,7.003,1.000,0.000,0.000,0.000,0.000,8.003,No
 Zone Internal Gains Nominal, BASEMENT ZN,1978.83,19.8,99.964,1.000E-002,6.802,0.000,0.000,0.000,0.000,0.000,6.802,No
 Zone Internal Gains Nominal, CAFE_FLR_1 ZN,188.86,9.4,19.993,5.002E-002,11.904,1.000,0.000,0.000,0.000,0.000,12.905,No
 Zone Internal Gains Nominal, CORRIDOR_FLR_3 ZN,389.40,3.9,99.964,1.000E-002,10.704,0.000,0.000,0.000,0.000,0.000,10.704,No
 Zone Internal Gains Nominal, CORRIDOR_FLR_6 ZN,412.12,4.1,99.964,1.000E-002,10.704,0.000,0.000,0.000,0.000,0.000,10.704,No
 Zone Internal Gains Nominal, DINING_FLR_6 ZN,331.66,33.2,9.996,0.100,7.003,1.000,0.000,0.000,0.000,0.000,8.003,No
 Zone Internal Gains Nominal, KITCHEN_FLR_6 ZN,103.30,5.2,19.993,5.002E-002,13.105,10.004,0.000,0.000,0.000,0.000,23.108,No
 Zone Internal Gains Nominal, LAUNDRY_FLR_1 ZN,78.04,3.9,19.993,5.002E-002,6.502,20.007,0.000,0.000,0.000,0.000,26.510,No
 Zone Internal Gains Nominal, LOBBY_FLR_1 ZN,1308.19,130.9,9.996,0.100,11.504,2.501,0.000,0.000,0.000,0.000,14.005,No
 Zone Internal Gains Nominal, MECH_FLR_1 ZN,164.24,0.8,199.927,5.002E-003,4.602,1.000,0.000,0.000,0.000,0.000,5.602,No
 Zone Internal Gains Nominal, RETAIL_1_FLR_1 ZN,67.07,2.2,29.989,3.335E-002,15.506,2.501,0.000,0.000,0.000,0.000,18.007,No
 Zone Internal Gains Nominal, RETAIL_2_FLR_1 ZN,77.67,2.6,29.989,3.335E-002,15.506,2.501,0.000,0.000,0.000,0.000,18.007,No
 Zone Internal Gains Nominal, ROOM_1_FLR_3 ZN,39.02,1.6,24.991,4.001E-002,5.102,2.501,0.000,0.000,0.000,0.000,7.603,No
 Zone Internal Gains Nominal, ROOM_1_FLR_6 ZN,39.02,1.6,24.991,4.001E-002,5.102,2.501,0.000,0.000,0.000,0.000,7.603,No
 Zone Internal Gains Nominal, ROOM_2_FLR_3 ZN,39.02,1.6,24.991,4.001E-002,5.102,2.501,0.000,0.000,0.000,0.000,7.603,No
 Zone Internal Gains Nominal, ROOM_2_FLR_6 ZN,39.02,1.6,24.991,4.001E-002,5.102,2.501,0.000,0.000,0.000,0.000,7.603,No
 Zone Internal Gains Nominal, ROOM_3_MULT19_FLR_3 ZN,24.52,1.0,24.991,4.001E-002,5.102,2.501,0.000,0.000,0.000,0.000,7.603,No
 Zone Internal Gains Nominal, ROOM_3_MULT9_FLR_6 ZN,24.53,1.0,24.991,4.001E-002,5.102,2.501,0.000,0.000,0.000,0.000,7.603,No
 Zone Internal Gains Nominal, ROOM_4_MULT19_FLR_3 ZN,24.53,1.0,24.991,4.001E-002,5.102,2.501,0.000,0.000,0.000,0.000,7.603,No
 Zone Internal Gains Nominal, ROOM_5_FLR_3 ZN,39.02,1.6,24.991,4.001E-002,5.102,2.501,0.000,0.000,0.000,0.000,7.603,No
 Zone Internal Gains Nominal, ROOM_6_FLR_3 ZN,39.02,1.6,24.991,4.001E-002,5.102,2.501,0.000,0.000,0.000,0.000,7.603,No
 Zone Internal Gains Nominal, STORAGE_FLR_1 ZN,94.76,0.9,99.964,1.000E-002,6.802,0.000,0.000,0.000,0.000,0.000,6.802,No
! <People Internal Gains Nominal>,Name,Schedule Name,Zone Name,Zone Floor Area {m2},# Zone Occupants,Number of People {},People/Floor Area {person/m2},Floor Area per person {m2/person},Fraction Radiant,Fraction Convected,Sensible Fraction Calculation,Activity level,ASHRAE 55 Warnings,Carbon Dioxide Generation Rate,Nominal Minimum Number of People,Nominal Maximum Number of People
 People Internal Gains Nominal, CORRIDOR_FLR_3 ZN SPACE FUNCTION CORRIDOR/TRANSITION AREA - HOSPITAL-SCH-E PEOPLE,NECB-E-OCCUPANCY,CORRIDOR_FLR_3 ZN,389.40,3.9,3.9,1.000E-002,99.964,0.300,0.700,AutoCalculate,NECB-ACTIVITY,No,3.8200E-008,0,4
 People Internal Gains Nominal, CORRIDOR_FLR_6 ZN SPACE FUNCTION CORRIDOR/TRANSITION AREA - HOSPITAL-SCH-E PEOPLE,NECB-E-OCCUPANCY,CORRIDOR_FLR_6 ZN,412.12,4.1,4.1,1.000E-002,99.964,0.300,0.700,AutoCalculate,NECB-ACTIVITY,No,3.8200E-008,0,4
 People Internal Gains Nominal, BANQUET_FLR_6 ZN SPACE FUNCTION DINING AREA - OTHER PEOPLE,NECB-B-OCCUPANCY,BANQUET_FLR_6 ZN,331.66,33.2,33.2,0.100,9.996,0.300,0.700,AutoCalculate,NECB-ACTIVITY,No,3.8200E-008,0,30
 People Internal Gains Nominal, DINING_FLR_6 ZN SPACE FUNCTION DINING AREA - OTHER PEOPLE,NECB-B-OCCUPANCY,DINING_FLR_6 ZN,331.66,33.2,33.2,0.100,9.996,0.300,0.700,AutoCalculate,NECB-ACTIVITY,No,3.8200E-008,0,30
 People Internal Gains Nominal, MECH_FLR_1 ZN SPACE FUNCTION ELECTRICAL/MECHANICAL ROOM-SCH-E PEOPLE,NECB-E-OCCUPANCY,MECH_FLR_1 ZN,164.24,0.8,0.8,5.002E-003,199.927,0.300,0.700,AutoCalculate,NECB-ACTIVITY,No,3.8200E-008,0,1
 People Internal Gains Nominal, KITCHEN_FLR_6 ZN SPACE FUNCTION FOOD PREPARATION AREA PEOPLE,NECB-B-OCCUPANCY,KITCHEN_FLR_6 ZN,103.30,5.2,5.2,5.002E-002,19.993,0.300,0.700,AutoCalculate,NECB-ACTIVITY,No,3.8200E-008,0,5
 People Internal Gains Nominal, ROOM_1_FLR_3 ZN SPACE FUNCTION GUEST ROOM PEOPLE,NECB-F-OCCUPANCY,ROOM_1_FLR_3 ZN,39.02,1.6,1.6,4.001E-002,24.991,0.300,0.700,AutoCalculate,NECB-ACTIVITY,No,3.8200E-008,0,1
 People Internal Gains Nominal, ROOM_1_FLR_6 ZN SPACE FUNCTION GUEST ROOM PEOPLE,NECB-F-OCCUPANCY,ROOM_1_FLR_6 ZN,39.02,1.6,1.6,4.001E-002,24.991,0.300,0.700,AutoCalculate,NECB-ACTIVITY,No,3.8200E-008,0,1
 People Internal Gains Nominal, ROOM_2_FLR_3 ZN SPACE FUNCTION GUEST ROOM PEOPLE,NECB-F-OCCUPANCY,ROOM_2_FLR_3 ZN,39.02,1.6,1.6,4.001E-002,24.991,0.300,0.700,AutoCalculate,NECB-ACTIVITY,No,3.8200E-008,0,1
 People Internal Gains Nominal, ROOM_2_FLR_6 ZN SPACE FUNCTION GUEST ROOM PEOPLE,NECB-F-OCCUPANCY,ROOM_2_FLR_6 ZN,39.02,1.6,1.6,4.001E-002,24.991,0.300,0.700,AutoCalculate,NECB-ACTIVITY,No,3.8200E-008,0,1
 People Internal Gains Nominal, ROOM_3_MULT19_FLR_3 ZN SPACE FUNCTION GUEST ROOM PEOPLE,NECB-F-OCCUPANCY,ROOM_3_MULT19_FLR_3 ZN,24.52,1.0,1.0,4.001E-002,24.991,0.300,0.700,AutoCalculate,NECB-ACTIVITY,No,3.8200E-008,0,1
 People Internal Gains Nominal, ROOM_3_MULT9_FLR_6 ZN SPACE FUNCTION GUEST ROOM PEOPLE,NECB-F-OCCUPANCY,ROOM_3_MULT9_FLR_6 ZN,24.53,1.0,1.0,4.001E-002,24.991,0.300,0.700,AutoCalculate,NECB-ACTIVITY,No,3.8200E-008,0,1
 People Internal Gains Nominal, ROOM_4_MULT19_FLR_3 ZN SPACE FUNCTION GUEST ROOM PEOPLE,NECB-F-OCCUPANCY,ROOM_4_MULT19_FLR_3 ZN,24.53,1.0,1.0,4.001E-002,24.991,0.300,0.700,AutoCalculate,NECB-ACTIVITY,No,3.8200E-008,0,1
 People Internal Gains Nominal, ROOM_5_FLR_3 ZN SPACE FUNCTION GUEST ROOM PEOPLE,NECB-F-OCCUPANCY,ROOM_5_FLR_3 ZN,39.02,1.6,1.6,4.001E-002,24.991,0.300,0.700,AutoCalculate,NECB-ACTIVITY,No,3.8200E-008,0,1
 People Internal Gains Nominal, ROOM_6_FLR_3 ZN SPACE FUNCTION GUEST ROOM PEOPLE,NECB-F-OCCUPANCY,ROOM_6_FLR_3 ZN,39.02,1.6,1.6,4.001E-002,24.991,0.300,0.700,AutoCalculate,NECB-ACTIVITY,No,3.8200E-008,0,1
 People Internal Gains Nominal, LAUNDRY_FLR_1 ZN SPACE FUNCTION LAUNDRY/WASHING AREA PEOPLE,NECB-C-OCCUPANCY,LAUNDRY_FLR_1 ZN,78.04,3.9,3.9,5.002E-002,19.993,0.300,0.700,AutoCalculate,NECB-ACTIVITY,No,3.8200E-008,0,4
 People Internal Gains Nominal, LOBBY_FLR_1 ZN SPACE FUNCTION LOBBY - HOTEL PEOPLE,NECB-H-OCCUPANCY,LOBBY_FLR_1 ZN,1308.19,130.9,130.9,0.100,9.996,0.300,0.700,AutoCalculate,NECB-ACTIVITY,No,3.8200E-008,118,118
 People Internal Gains Nominal, CAFE_FLR_1 ZN SPACE FUNCTION RETAIL FACILITY MALL CONCOURSE PEOPLE,NECB-C-OCCUPANCY,CAFE_FLR_1 ZN,188.86,9.4,9.4,5.002E-002,19.993,0.300,0.700,AutoCalculate,NECB-ACTIVITY,No,3.8200E-008,0,9
 People Internal Gains Nominal, RETAIL_1_FLR_1 ZN SPACE FUNCTION SALES AREA PEOPLE,NECB-C-OCCUPANCY,RETAIL_1_FLR_1 ZN,67.07,2.2,2.2,3.335E-002,29.989,0.300,0.700,AutoCalculate,NECB-ACTIVITY,No,3.8200E-008,0,2
 People Internal Gains Nominal, RETAIL_2_FLR_1 ZN SPACE FUNCTION SALES AREA PEOPLE,NECB-C-OCCUPANCY,RETAIL_2_FLR_1 ZN,77.67,2.6,2.6,3.335E-002,29.989,0.300,0.700,AutoCalculate,NECB-ACTIVITY,No,3.8200E-008,0,2
 People Internal Gains Nominal, BASEMENT ZN SPACE FUNCTION STORAGE ROOM <= 5 M2 <= 100 M2-SCH-E PEOPLE,NECB-E-OCCUPANCY,BASEMENT ZN,1978.83,19.8,19.8,1.000E-002,99.964,0.300,0.700,AutoCalculate,NECB-ACTIVITY,No,3.8200E-008,0,18
 People Internal Gains Nominal, STORAGE_FLR_1 ZN SPACE FUNCTION STORAGE ROOM <= 5 M2 <= 100 M2-SCH-E PEOPLE,NECB-E-OCCUPANCY,STORAGE_FLR_1 ZN,94.76,0.9,0.9,1.000E-002,99.964,0.300,0.700,AutoCalculate,NECB-ACTIVITY,No,3.8200E-008,0,1
! <Lights Internal Gains Nominal>,Name,Schedule Name,Zone Name,Zone Floor Area {m2},# Zone Occupants,Lighting Level {W},Lights/Floor Area {W/m2},Lights per person {W/person},Fraction Return Air,Fraction Radiant,Fraction Short Wave,Fraction Convected,Fraction Replaceable,End-Use Category,Nominal Minimum Lighting Level {W},Nominal Maximum Lighting Level {W}
 Lights Internal Gains Nominal, CORRIDOR_FLR_3 ZN SPACE FUNCTION CORRIDOR/TRANSITION AREA - HOSPITAL-SCH-E LIGHTS,NECB-E-OCCUPANCY-NECB-E-LIGHTING-0.0-0.0-0.67-LIGHT RULESET,CORRIDOR_FLR_3 ZN,389.40,3.9,4168.144,10.704,1070.000,0.000,0.500,0.200,0.300,1.000,General,208.407,3751.330
 Lights Internal Gains Nominal, CORRIDOR_FLR_6 ZN SPACE FUNCTION CORRIDOR/TRANSITION AREA - HOSPITAL-SCH-E LIGHTS,NECB-E-OCCUPANCY-NECB-E-LIGHTING-0.0-0.0-0.67-LIGHT RULESET,CORRIDOR_FLR_6 ZN,412.12,4.1,4411.337,10.704,1070.000,0.000,0.500,0.200,0.300,1.000,General,220.567,3970.203
 Lights Internal Gains Nominal, BANQUET_FLR_6 ZN SPACE FUNCTION DINING AREA - OTHER LIGHTS,NECB-B-LIGHTING,BANQUET_FLR_6 ZN,331.66,33.2,2322.446,7.003,70.000,0.000,0.500,0.200,0.300,1.000,General,232.245,2090.201
 Lights Internal Gains Nominal, DINING_FLR_6 ZN SPACE FUNCTION DINING AREA - OTHER LIGHTS,NECB-B-LIGHTING,DINING_FLR_6 ZN,331.66,33.2,2322.446,7.003,70.000,0.000,0.500,0.200,0.300,1.000,General,232.245,2090.201
 Lights Internal Gains Nominal, MECH_FLR_1 ZN SPACE FUNCTION ELECTRICAL/MECHANICAL ROOM-SCH-E LIGHTS,NECB-E-LIGHTING,MECH_FLR_1 ZN,164.24,0.8,755.793,4.602,920.000,0.000,0.500,0.200,0.300,1.000,General,37.790,680.214
 Lights Internal Gains Nominal, KITCHEN_FLR_6 ZN SPACE FUNCTION FOOD PREPARATION AREA LIGHTS,NECB-B-OCCUPANCY-NECB-B-LIGHTING-0.0-0.0-0.67-LIGHT RULESET,KITCHEN_FLR_6 ZN,103.30,5.2,1353.780,13.105,262.000,0.000,0.500,0.200,0.300,1.000,General,135.378,1218.402
 Lights Internal Gains Nominal, ROOM_1_FLR_3 ZN SPACE FUNCTION GUEST ROOM LIGHTS,NECB-F-LIGHTING,ROOM_1_FLR_3 ZN,39.02,1.6,199.085,5.102,127.500,0.000,0.500,0.200,0.300,1.000,General,13.936,125.423
 Lights Internal Gains Nominal, ROOM_1_FLR_6 ZN SPACE FUNCTION GUEST ROOM LIGHTS,NECB-F-LIGHTING,ROOM_1_FLR_6 ZN,39.02,1.6,199.085,5.102,127.500,0.000,0.500,0.200,0.300,1.000,General,13.936,125.423
 Lights Internal Gains Nominal, ROOM_2_FLR_3 ZN SPACE FUNCTION GUEST ROOM LIGHTS,NECB-F-LIGHTING,ROOM_2_FLR_3 ZN,39.02,1.6,199.061,5.102,127.500,0.000,0.500,0.200,0.300,1.000,General,13.934,125.409
 Lights Internal Gains Nominal, ROOM_2_FLR_6 ZN SPACE FUNCTION GUEST ROOM LIGHTS,NECB-F-LIGHTING,ROOM_2_FLR_6 ZN,39.02,1.6,199.061,5.102,127.500,0.000,0.500,0.200,0.300,1.000,General,13.934,125.409
 Lights Internal Gains Nominal, ROOM_3_MULT19_FLR_3 ZN SPACE FUNCTION GUEST ROOM LIGHTS,NECB-F-LIGHTING,ROOM_3_MULT19_FLR_3 ZN,24.52,1.0,125.117,5.102,127.500,0.000,0.500,0.200,0.300,1.000,General,8.758,78.824
 Lights Internal Gains Nominal, ROOM_3_MULT9_FLR_6 ZN SPACE FUNCTION GUEST ROOM LIGHTS,NECB-F-LIGHTING,ROOM_3_MULT9_FLR_6 ZN,24.53,1.0,125.151,5.102,127.500,0.000,0.500,0.200,0.300,1.000,General,8.761,78.845
 Lights Internal Gains Nominal, ROOM_4_MULT19_FLR_3 ZN SPACE FUNCTION GUEST ROOM LIGHTS,NECB-F-LIGHTING,ROOM_4_MULT19_FLR_3 ZN,24.53,1.0,125.151,5.102,127.500,0.000,0.500,0.200,0.300,1.000,General,8.761,78.845
 Lights Internal Gains Nominal, ROOM_5_FLR_3 ZN SPACE FUNCTION GUEST ROOM LIGHTS,NECB-F-LIGHTING,ROOM_5_FLR_3 ZN,39.02,1.6,199.085,5.102,127.500,0.000,0.500,0.200,0.300,1.000,General,13.936,125.423
 Lights Internal Gains Nominal, ROOM_6_FLR_3 ZN SPACE FUNCTION GUEST ROOM LIGHTS,NECB-F-LIGHTING,ROOM_6_FLR_3 ZN,39.02,1.6,199.061,5.102,127.500,0.000,0.500,0.200,0.300,1.000,General,13.934,125.409
 Lights Internal Gains Nominal, LAUNDRY_FLR_1 ZN SPACE FUNCTION LAUNDRY/WASHING AREA LIGHTS,NECB-C-LIGHTING,LAUNDRY_FLR_1 ZN,78.04,3.9,507.441,6.502,130.000,0.000,0.500,0.200,0.300,1.000,General,25.372,456.697
 Lights Internal Gains Nominal, LOBBY_FLR_1 ZN SPACE FUNCTION LOBBY - HOTEL LIGHTS,NECB-H-OCCUPANCY-NECB-H-LIGHTING-0.0-0.0-0.67-LIGHT RULESET,LOBBY_FLR_1 ZN,1308.19,130.9,15049.608,11.504,115.000,0.000,0.500,0.200,0.300,1.000,General,13544.647,13544.647
 Lights Internal Gains Nominal, CAFE_FLR_1 ZN SPACE FUNCTION RETAIL FACILITY MALL CONCOURSE LIGHTS,NECB-C-OCCUPANCY-NECB-C-LIGHTING-0.0-0.0-0.67-LIGHT RULESET,CAFE_FLR_1 ZN,188.86,9.4,2248.273,11.904,238.000,0.000,0.500,0.200,0.300,1.000,General,112.414,2023.446
 Lights Internal Gains Nominal, RETAIL_1_FLR_1 ZN SPACE FUNCTION SALES AREA LIGHTS,NECB-C-OCCUPANCY-NECB-C-LIGHTING-0.0-0.0-0.67-LIGHT RULESET,RETAIL_1_FLR_1 ZN,67.07,2.2,1039.984,15.506,465.000,0.000,0.500,0.200,0.300,1.000,General,51.999,935.986
 Lights Internal Gains Nominal, RETAIL_2_FLR_1 ZN SPACE FUNCTION SALES AREA LIGHTS,NECB-C-OCCUPANCY-NECB-C-LIGHTING-0.0-0.0-0.67-LIGHT RULESET,RETAIL_2_FLR_1 ZN,77.67,2.6,1204.305,15.506,465.000,0.000,0.500,0.200,0.300,1.000,General,60.215,1083.875
 Lights Internal Gains Nominal, BASEMENT ZN SPACE FUNCTION STORAGE ROOM <= 5 M2 <= 100 M2-SCH-E LIGHTS,NECB-E-LIGHTING,BASEMENT ZN,1978.83,19.8,13460.935,6.802,680.000,0.000,0.500,0.200,0.300,1.000,General,673.047,12114.842
 Lights Internal Gains Nominal, STORAGE_FLR_1 ZN SPACE FUNCTION STORAGE ROOM <= 5 M2 <= 100 M2-SCH-E LIGHTS,NECB-E-LIGHTING,STORAGE_FLR_1 ZN,94.76,0.9,644.597,6.802,680.000,0.000,0.500,0.200,0.300,1.000,General,32.230,580.138
! <ElectricEquipment Internal Gains Nominal>,Name,Schedule Name,Zone Name,Zone Floor Area {m2},# Zone Occupants,Equipment Level {W},Equipment/Floor Area {W/m2},Equipment per person {W/person},Fraction Latent,Fraction Radiant,Fraction Lost,Fraction Convected,End-Use SubCategory,Nominal Minimum Equipment Level {W},Nominal Maximum Equipment Level {W}
 ElectricEquipment Internal Gains Nominal, BANQUET_FLR_6 ZN SPACE FUNCTION DINING AREA - OTHER ELEC EQUIP,NECB-B-ELECTRIC-EQUIPMENT,BANQUET_FLR_6 ZN,331.66,33.2,331.778,1.000,10.000,0.000,0.500,0.000,0.500,General,33.178,298.600
 ElectricEquipment Internal Gains Nominal, DINING_FLR_6 ZN SPACE FUNCTION DINING AREA - OTHER ELEC EQUIP,NECB-B-ELECTRIC-EQUIPMENT,DINING_FLR_6 ZN,331.66,33.2,331.778,1.000,10.000,0.000,0.500,0.000,0.500,General,33.178,298.600
 ElectricEquipment Internal Gains Nominal, MECH_FLR_1 ZN SPACE FUNCTION ELECTRICAL/MECHANICAL ROOM-SCH-E ELEC EQUIP,NECB-E-ELECTRIC-EQUIPMENT,MECH_FLR_1 ZN,164.24,0.8,164.303,1.000,200.000,0.000,0.500,0.000,0.500,General,8.215,147.873
 ElectricEquipment Internal Gains Nominal, KITCHEN_FLR_6 ZN SPACE FUNCTION FOOD PREPARATION AREA ELEC EQUIP,NECB-B-ELECTRIC-EQUIPMENT,KITCHEN_FLR_6 ZN,103.30,5.2,1033.420,10.004,200.000,0.000,0.500,0.000,0.500,General,103.342,930.078
 ElectricEquipment Internal Gains Nominal, ROOM_1_FLR_3 ZN SPACE FUNCTION GUEST ROOM ELEC EQUIP,NECB-F-ELECTRIC-EQUIPMENT,ROOM_1_FLR_3 ZN,39.02,1.6,97.591,2.501,62.500,0.000,0.500,0.000,0.500,General,6.831,61.482
 ElectricEquipment Internal Gains Nominal, ROOM_1_FLR_6 ZN SPACE FUNCTION GUEST ROOM ELEC EQUIP,NECB-F-ELECTRIC-EQUIPMENT,ROOM_1_FLR_6 ZN,39.02,1.6,97.591,2.501,62.500,0.000,0.500,0.000,0.500,General,6.831,61.482
 ElectricEquipment Internal Gains Nominal, ROOM_2_FLR_3 ZN SPACE FUNCTION GUEST ROOM ELEC EQUIP,NECB-F-ELECTRIC-EQUIPMENT,ROOM_2_FLR_3 ZN,39.02,1.6,97.579,2.501,62.500,0.000,0.500,0.000,0.500,General,6.831,61.475
 ElectricEquipment Internal Gains Nominal, ROOM_2_FLR_6 ZN SPACE FUNCTION GUEST ROOM ELEC EQUIP,NECB-F-ELECTRIC-EQUIPMENT,ROOM_2_FLR_6 ZN,39.02,1.6,97.579,2.501,62.500,0.000,0.500,0.000,0.500,General,6.831,61.475
 ElectricEquipment Internal Gains Nominal, ROOM_3_MULT19_FLR_3 ZN SPACE FUNCTION GUEST ROOM ELEC EQUIP,NECB-F-ELECTRIC-EQUIPMENT,ROOM_3_MULT19_FLR_3 ZN,24.52,1.0,61.332,2.501,62.500,0.000,0.500,0.000,0.500,General,4.293,38.639
 ElectricEquipment Internal Gains Nominal, ROOM_3_MULT9_FLR_6 ZN SPACE FUNCTION GUEST ROOM ELEC EQUIP,NECB-F-ELECTRIC-EQUIPMENT,ROOM_3_MULT9_FLR_6 ZN,24.53,1.0,61.349,2.501,62.500,0.000,0.500,0.000,0.500,General,4.294,38.650
 ElectricEquipment Internal Gains Nominal, ROOM_4_MULT19_FLR_3 ZN SPACE FUNCTION GUEST ROOM ELEC EQUIP,NECB-F-ELECTRIC-EQUIPMENT,ROOM_4_MULT19_FLR_3 ZN,24.53,1.0,61.349,2.501,62.500,0.000,0.500,0.000,0.500,General,4.294,38.650
 ElectricEquipment Internal Gains Nominal, ROOM_5_FLR_3 ZN SPACE FUNCTION GUEST ROOM ELEC EQUIP,NECB-F-ELECTRIC-EQUIPMENT,ROOM_5_FLR_3 ZN,39.02,1.6,97.591,2.501,62.500,0.000,0.500,0.000,0.500,General,6.831,61.482
 ElectricEquipment Internal Gains Nominal, ROOM_6_FLR_3 ZN SPACE FUNCTION GUEST ROOM ELEC EQUIP,NECB-F-ELECTRIC-EQUIPMENT,ROOM_6_FLR_3 ZN,39.02,1.6,97.579,2.501,62.500,0.000,0.500,0.000,0.500,General,6.831,61.475
 ElectricEquipment Internal Gains Nominal, LAUNDRY_FLR_1 ZN SPACE FUNCTION LAUNDRY/WASHING AREA ELEC EQUIP,NECB-C-ELECTRIC-EQUIPMENT,LAUNDRY_FLR_1 ZN,78.04,3.9,1561.357,20.007,400.000,0.000,0.500,0.000,0.500,General,78.068,1405.221
 ElectricEquipment Internal Gains Nominal, LOBBY_FLR_1 ZN SPACE FUNCTION LOBBY - HOTEL ELEC EQUIP,NECB-H-ELECTRIC-EQUIPMENT,LOBBY_FLR_1 ZN,1308.19,130.9,3271.654,2.501,25.000,0.000,0.500,0.000,0.500,General,2944.488,2944.488
 ElectricEquipment Internal Gains Nominal, CAFE_FLR_1 ZN SPACE FUNCTION RETAIL FACILITY MALL CONCOURSE ELEC EQUIP,NECB-C-ELECTRIC-EQUIPMENT,CAFE_FLR_1 ZN,188.86,9.4,188.931,1.000,20.000,0.000,0.500,0.000,0.500,General,9.447,170.037
 ElectricEquipment Internal Gains Nominal, RETAIL_1_FLR_1 ZN SPACE FUNCTION SALES AREA ELEC EQUIP,NECB-C-ELECTRIC-EQUIPMENT,RETAIL_1_FLR_1 ZN,67.07,2.2,167.739,2.501,75.000,0.000,0.500,0.000,0.500,General,8.387,150.965
 ElectricEquipment Internal Gains Nominal, RETAIL_2_FLR_1 ZN SPACE FUNCTION SALES AREA ELEC EQUIP,NECB-C-ELECTRIC-EQUIPMENT,RETAIL_2_FLR_1 ZN,77.67,2.6,194.243,2.501,75.000,0.000,0.500,0.000,0.500,General,9.712,174.819
! <Shadowing/Sun Position Calculations Annual Simulations>, Calculation Method, Value {days}, Allowable Number Figures in Shadow Overlap {}, Polygon Clipping Algorithm, Sky Diffuse Modeling Algorithm, External Shading Calculation Method, Output External Shading Calculation Results, Disable Self-Shading Within Shading Zone Groups, Disable Self-Shading From Shading Zone Groups to Other Zones
Shadowing/Sun Position Calculations Annual Simulations,AverageOverDaysInFrequency,7,15000,SutherlandHodgman,SimpleSkyDiffuseModeling,InternalCalculation,No,No,No
! <ZoneInfiltration Airflow Stats Nominal>,Name,Schedule Name,Zone Name, Zone Floor Area {m2}, # Zone Occupants,Design Volume Flow Rate {m3/s},Volume Flow Rate/Floor Area {m3/s/m2},Volume Flow Rate/Exterior Surface Area {m3/s/m2},ACH - Air Changes per Hour,Equation A - Constant Term Coefficient {},Equation B - Temperature Term Coefficient {1/C},Equation C - Velocity Term Coefficient {s/m}, Equation D - Velocity Squared Term Coefficient {s2/m2}
 ZoneInfiltration Airflow Stats Nominal, BANQUET_FLR_6 INFILTRATION,ALWAYS ON DISCRETE,BANQUET_FLR_6 ZN,331.66,33.2,0.107,3.235E-004,2.500E-004,0.382,0.000,0.000,0.224,0.000
 ZoneInfiltration Airflow Stats Nominal, CAFE_FLR_1 INFILTRATION,ALWAYS ON DISCRETE,CAFE_FLR_1 ZN,188.86,9.4,8.526E-002,4.514E-004,2.500E-004,0.410,0.000,0.000,0.224,0.000
 ZoneInfiltration Airflow Stats Nominal, CORRIDOR_FLR_3 INFILTRATION,ALWAYS ON DISCRETE,CORRIDOR_FLR_3 ZN,389.40,3.9,1.208E-002,3.101E-005,2.500E-004,3.663E-002,0.000,0.000,0.224,0.000
 ZoneInfiltration Airflow Stats Nominal, CORRIDOR_FLR_6 INFILTRATION,ALWAYS ON DISCRETE,CORRIDOR_FLR_6 ZN,412.12,4.1,0.124,3.018E-004,2.500E-004,0.357,0.000,0.000,0.224,0.000
 ZoneInfiltration Airflow Stats Nominal, DINING_FLR_6 INFILTRATION,ALWAYS ON DISCRETE,DINING_FLR_6 ZN,331.66,33.2,0.107,3.235E-004,2.500E-004,0.382,0.000,0.000,0.224,0.000
 ZoneInfiltration Airflow Stats Nominal, KITCHEN_FLR_6 INFILTRATION,ALWAYS ON DISCRETE,KITCHEN_FLR_6 ZN,103.30,5.2,4.766E-002,4.613E-004,2.500E-004,0.545,0.000,0.000,0.224,0.000
 ZoneInfiltration Airflow Stats Nominal, LAUNDRY_FLR_1 INFILTRATION,ALWAYS ON DISCRETE,LAUNDRY_FLR_1 ZN,78.04,3.9,2.144E-002,2.747E-004,2.500E-004,0.250,0.000,0.000,0.224,0.000
 ZoneInfiltration Airflow Stats Nominal, LOBBY_FLR_1 INFILTRATION,ALWAYS ON DISCRETE,LOBBY_FLR_1 ZN,1308.19,130.9,0.170,1.300E-004,2.500E-004,0.118,0.000,0.000,0.224,0.000
 ZoneInfiltration Airflow Stats Nominal, MECH_FLR_1 INFILTRATION,ALWAYS ON DISCRETE,MECH_FLR_1 ZN,164.24,0.8,1.570E-002,9.559E-005,2.500E-004,8.685E-002,0.000,0.000,0.224,0.000
 ZoneInfiltration Airflow Stats Nominal, RETAIL_1_FLR_1 INFILTRATION,ALWAYS ON DISCRETE,RETAIL_1_FLR_1 ZN,67.07,2.2,3.398E-002,5.066E-004,2.500E-004,0.460,0.000,0.000,0.224,0.000
 ZoneInfiltration Airflow Stats Nominal, RETAIL_2_FLR_1 INFILTRATION,ALWAYS ON DISCRETE,RETAIL_2_FLR_1 ZN,77.67,2.6,6.643E-003,8.553E-005,2.500E-004,7.771E-002,0.000,0.000,0.224,0.000
 ZoneInfiltration Airflow Stats Nominal, ROOM_1_FLR_3 INFILTRATION,ALWAYS ON DISCRETE,ROOM_1_FLR_3 ZN,39.02,1.6,9.988E-003,2.559E-004,2.500E-004,0.302,0.000,0.000,0.224,0.000
 ZoneInfiltration Airflow Stats Nominal, ROOM_1_FLR_6 INFILTRATION,ALWAYS ON DISCRETE,ROOM_1_FLR_6 ZN,39.02,1.6,1.974E-002,5.059E-004,2.500E-004,0.598,0.000,0.000,0.224,0.000
 ZoneInfiltration Airflow Stats Nominal, ROOM_2_FLR_3 INFILTRATION,ALWAYS ON DISCRETE,ROOM_2_FLR_3 ZN,39.02,1.6,9.987E-003,2.560E-004,2.500E-004,0.302,0.000,0.000,0.224,0.000
 ZoneInfiltration Airflow Stats Nominal, ROOM_2_FLR_6 INFILTRATION,ALWAYS ON DISCRETE,ROOM_2_FLR_6 ZN,39.02,1.6,1.974E-002,5.060E-004,2.500E-004,0.598,0.000,0.000,0.224,0.000
 ZoneInfiltration Airflow Stats Nominal, ROOM_3_MULT19_FLR_3 INFILTRATION,ALWAYS ON DISCRETE,ROOM_3_MULT19_FLR_3 ZN,24.52,1.0,2.787E-003,1.136E-004,2.500E-004,0.134,0.000,0.000,0.224,0.000
 ZoneInfiltration Airflow Stats Nominal, ROOM_3_MULT9_FLR_6 INFILTRATION,ALWAYS ON DISCRETE,ROOM_3_MULT9_FLR_6 ZN,24.53,1.0,1.124E-002,4.583E-004,2.500E-004,0.541,0.000,0.000,0.224,0.000
 ZoneInfiltration Airflow Stats Nominal, ROOM_4_MULT19_FLR_3 INFILTRATION,ALWAYS ON DISCRETE,ROOM_4_MULT19_FLR_3 ZN,24.53,1.0,2.787E-003,1.136E-004,2.500E-004,0.134,0.000,0.000,0.224,0.000
 ZoneInfiltration Airflow Stats Nominal, ROOM_5_FLR_3 INFILTRATION,ALWAYS ON DISCRETE,ROOM_5_FLR_3 ZN,39.02,1.6,9.988E-003,2.559E-004,2.500E-004,0.302,0.000,0.000,0.224,0.000
 ZoneInfiltration Airflow Stats Nominal, ROOM_6_FLR_3 INFILTRATION,ALWAYS ON DISCRETE,ROOM_6_FLR_3 ZN,39.02,1.6,9.987E-003,2.560E-004,2.500E-004,0.302,0.000,0.000,0.224,0.000
 ZoneInfiltration Airflow Stats Nominal, STORAGE_FLR_1 INFILTRATION,ALWAYS ON DISCRETE,STORAGE_FLR_1 ZN,94.76,0.9,9.058E-003,9.559E-005,2.500E-004,8.685E-002,0.000,0.000,0.224,0.000
! <AirFlow Model>, Simple
 AirFlow Model, Simple
! <RoomAir Model>, Zone Name, Mixing/Mundt/UCSDDV/UCSDCV/UCSDUFI/UCSDUFE/User Defined
RoomAir Model,BANQUET_FLR_6 ZN,Mixing/Well-Stirred
RoomAir Model,BASEMENT ZN,Mixing/Well-Stirred
RoomAir Model,CAFE_FLR_1 ZN,Mixing/Well-Stirred
RoomAir Model,CORRIDOR_FLR_3 ZN,Mixing/Well-Stirred
RoomAir Model,CORRIDOR_FLR_6 ZN,Mixing/Well-Stirred
RoomAir Model,DINING_FLR_6 ZN,Mixing/Well-Stirred
RoomAir Model,KITCHEN_FLR_6 ZN,Mixing/Well-Stirred
RoomAir Model,LAUNDRY_FLR_1 ZN,Mixing/Well-Stirred
RoomAir Model,LOBBY_FLR_1 ZN,Mixing/Well-Stirred
RoomAir Model,MECH_FLR_1 ZN,Mixing/Well-Stirred
RoomAir Model,RETAIL_1_FLR_1 ZN,Mixing/Well-Stirred
RoomAir Model,RETAIL_2_FLR_1 ZN,Mixing/Well-Stirred
RoomAir Model,ROOM_1_FLR_3 ZN,Mixing/Well-Stirred
RoomAir Model,ROOM_1_FLR_6 ZN,Mixing/Well-Stirred
RoomAir Model,ROOM_2_FLR_3 ZN,Mixing/Well-Stirred
RoomAir Model,ROOM_2_FLR_6 ZN,Mixing/Well-Stirred
RoomAir Model,ROOM_3_MULT19_FLR_3 ZN,Mixing/Well-Stirred
RoomAir Model,ROOM_3_MULT9_FLR_6 ZN,Mixing/Well-Stirred
RoomAir Model,ROOM_4_MULT19_FLR_3 ZN,Mixing/Well-Stirred
RoomAir Model,ROOM_5_FLR_3 ZN,Mixing/Well-Stirred
RoomAir Model,ROOM_6_FLR_3 ZN,Mixing/Well-Stirred
RoomAir Model,STORAGE_FLR_1 ZN,Mixing/Well-Stirred
! <AirflowNetwork Model:Control>, No Multizone or Distribution/Multizone with Distribution/Multizone without Distribution/Multizone with Distribution only during Fan Operation
AirflowNetwork Model:Control,NoMultizoneOrDistribution
! <Zone Volume Capacitance Multiplier>, Sensible Heat Capacity Multiplier, Moisture Capacity Multiplier, Carbon Dioxide Capacity Multiplier, Generic Contaminant Capacity Multiplier
Zone Volume Capacitance Multiplier,   1.000 ,   1.000,   1.000,   1.000
! <Load Timesteps in Zone Design Calculation Averaging Window>, Value
 Load Timesteps in Zone Design Calculation Averaging Window,    6
! <Heating Sizing Factor Information>, Sizing Factor ID, Value
 Heating Sizing Factor Information, Global,   1.2500    
 Heating Sizing Factor Information, Zone BANQUET_FLR_6 ZN,   1.2500    
 Heating Sizing Factor Information, Zone BASEMENT ZN,   1.2500    
 Heating Sizing Factor Information, Zone CAFE_FLR_1 ZN,   1.2500    
 Heating Sizing Factor Information, Zone CORRIDOR_FLR_3 ZN,   1.2500    
 Heating Sizing Factor Information, Zone CORRIDOR_FLR_6 ZN,   1.2500    
 Heating Sizing Factor Information, Zone DINING_FLR_6 ZN,   1.2500    
 Heating Sizing Factor Information, Zone KITCHEN_FLR_6 ZN,   1.2500    
 Heating Sizing Factor Information, Zone LAUNDRY_FLR_1 ZN,   1.2500    
 Heating Sizing Factor Information, Zone LOBBY_FLR_1 ZN,   1.2500    
 Heating Sizing Factor Information, Zone MECH_FLR_1 ZN,   1.2500    
 Heating Sizing Factor Information, Zone RETAIL_1_FLR_1 ZN,   1.2500    
 Heating Sizing Factor Information, Zone RETAIL_2_FLR_1 ZN,   1.2500    
 Heating Sizing Factor Information, Zone ROOM_1_FLR_3 ZN,   1.2500    
 Heating Sizing Factor Information, Zone ROOM_1_FLR_6 ZN,   1.2500    
 Heating Sizing Factor Information, Zone ROOM_2_FLR_3 ZN,   1.2500    
 Heating Sizing Factor Information, Zone ROOM_2_FLR_6 ZN,   1.2500    
 Heating Sizing Factor Information, Zone ROOM_3_MULT19_FLR_3 ZN,   1.2500    
 Heating Sizing Factor Information, Zone ROOM_3_MULT9_FLR_6 ZN,   1.2500    
 Heating Sizing Factor Information, Zone ROOM_4_MULT19_FLR_3 ZN,   1.2500    
 Heating Sizing Factor Information, Zone ROOM_5_FLR_3 ZN,   1.2500    
 Heating Sizing Factor Information, Zone ROOM_6_FLR_3 ZN,   1.2500    
 Heating Sizing Factor Information, Zone STORAGE_FLR_1 ZN,   1.2500    
! <Cooling Sizing Factor Information>, Sizing Factor ID, Value
 Cooling Sizing Factor Information, Global,   1.1500    
 Cooling Sizing Factor Information, Zone BANQUET_FLR_6 ZN,   1.1500    
 Cooling Sizing Factor Information, Zone BASEMENT ZN,   1.1500    
 Cooling Sizing Factor Information, Zone CAFE_FLR_1 ZN,   1.1500    
 Cooling Sizing Factor Information, Zone CORRIDOR_FLR_3 ZN,   1.1500    
 Cooling Sizing Factor Information, Zone CORRIDOR_FLR_6 ZN,   1.1500    
 Cooling Sizing Factor Information, Zone DINING_FLR_6 ZN,   1.1500    
 Cooling Sizing Factor Information, Zone KITCHEN_FLR_6 ZN,   1.1500    
 Cooling Sizing Factor Information, Zone LAUNDRY_FLR_1 ZN,   1.1500    
 Cooling Sizing Factor Information, Zone LOBBY_FLR_1 ZN,   1.1500    
 Cooling Sizing Factor Information, Zone MECH_FLR_1 ZN,   1.1500    
 Cooling Sizing Factor Information, Zone RETAIL_1_FLR_1 ZN,   1.1500    
 Cooling Sizing Factor Information, Zone RETAIL_2_FLR_1 ZN,   1.1500    
 Cooling Sizing Factor Information, Zone ROOM_1_FLR_3 ZN,   1.1500    
 Cooling Sizing Factor Information, Zone ROOM_1_FLR_6 ZN,   1.1500    
 Cooling Sizing Factor Information, Zone ROOM_2_FLR_3 ZN,   1.1500    
 Cooling Sizing Factor Information, Zone ROOM_2_FLR_6 ZN,   1.1500    
 Cooling Sizing Factor Information, Zone ROOM_3_MULT19_FLR_3 ZN,   1.1500    
 Cooling Sizing Factor Information, Zone ROOM_3_MULT9_FLR_6 ZN,   1.1500    
 Cooling Sizing Factor Information, Zone ROOM_4_MULT19_FLR_3 ZN,   1.1500    
 Cooling Sizing Factor Information, Zone ROOM_5_FLR_3 ZN,   1.1500    
 Cooling Sizing Factor Information, Zone ROOM_6_FLR_3 ZN,   1.1500    
 Cooling Sizing Factor Information, Zone STORAGE_FLR_1 ZN,   1.1500    
! <Zone Sizing Information>, Zone Name, Load Type, Calc Des Load {W}, User Des Load {W}, Calc Des Air Flow Rate {m3/s}, User Des Air Flow Rate {m3/s}, Design Day Name, Date/Time of Peak, Temperature at Peak {C}, Humidity Ratio at Peak {kgWater/kgDryAir}, Floor Area {m2}, # Occupants, Calc Outdoor Air Flow Rate {m3/s}, Calc DOAS Heat Addition Rate {W}
 Zone Sizing Information, BANQUET_FLR_6 ZN, Cooling, 8464.47617, 9734.14760, 0.68916, 1.18780, VANCOUVER INTL AP ANN CLG .4% CONDNS DB=>MWB, 7/21 13:40:00, 24.97333, 1.06257E-002, 331.65745, 33.17780, 1.18780, 0.00000
 Zone Sizing Information, BANQUET_FLR_6 ZN, Heating, 8683.81090, 10854.76362, 0.38663, 1.18780, VANCOUVER INTL AP ANN HTG 99.6% CONDNS DB, 12/21 10:00:00, -6.10000, 2.25331E-003, 331.65745, 33.17780, 1.18780, 0.00000
 Zone Sizing Information, BASEMENT ZN, Cooling, 13028.85969, 14983.18865, 1.06055, 1.21963, VANCOUVER INTL AP ANN CLG .4% CONDNS DB=>MWB, 7/21 16:20:00, 24.44133, 1.06257E-002, 1978.83018, 19.79549, 0.70367, 0.00000
 Zone Sizing Information, BASEMENT ZN, Heating, 0.00000, 0.00000, 0.00000, 0.70367, VANCOUVER INTL AP ANN HTG 99.6% CONDNS DB, , -6.10000, 2.25331E-003, 1978.83018, 19.79549, 0.70367, 0.00000
 Zone Sizing Information, CAFE_FLR_1 ZN, Cooling, 13056.98059, 15015.52768, 1.06289, 1.22232, VANCOUVER INTL AP ANN CLG .4% CONDNS DB=>MWB, 7/21 13:00:00, 24.72000, 1.06257E-002, 188.86188, 9.44653, 0.34539, 0.00000
 Zone Sizing Information, CAFE_FLR_1 ZN, Heating, 4607.14456, 5758.93070, 0.20413, 0.34539, VANCOUVER INTL AP ANN HTG 99.6% CONDNS DB, 12/21 09:00:00, -6.10000, 2.25331E-003, 188.86188, 9.44653, 0.34539, 0.00000
 Zone Sizing Information, CORRIDOR_FLR_3 ZN, Cooling, 25636.68566, 29482.18851, 2.08681, 2.39984, VANCOUVER INTL AP ANN CLG .4% CONDNS DB=>MWB, 7/21 14:00:00, 25.10000, 1.06257E-002, 389.40468, 3.89546, 0.47476, 0.00000
 Zone Sizing Information, CORRIDOR_FLR_3 ZN, Heating, 21070.91694, 26338.64618, 0.92725, 1.15906, VANCOUVER INTL AP ANN HTG 99.6% CONDNS DB, 12/21 09:00:00, -6.10000, 2.25331E-003, 389.40468, 3.89546, 0.47476, 0.00000
 Zone Sizing Information, CORRIDOR_FLR_6 ZN, Cooling, 11845.10259, 13621.86797, 0.96421, 1.10885, VANCOUVER INTL AP ANN CLG .4% CONDNS DB=>MWB, 7/21 13:40:00, 24.97333, 1.06257E-002, 412.12471, 4.12274, 0.12562, 0.00000
 Zone Sizing Information, CORRIDOR_FLR_6 ZN, Heating, 13812.56131, 17265.70163, 0.61697, 0.77122, VANCOUVER INTL AP ANN HTG 99.6% CONDNS DB, 12/21 09:00:00, -6.10000, 2.25331E-003, 412.12471, 4.12274, 0.12562, 0.00000
 Zone Sizing Information, DINING_FLR_6 ZN, Cooling, 8646.00136, 9942.90156, 0.70393, 1.18780, VANCOUVER INTL AP ANN CLG .4% CONDNS DB=>MWB, 7/21 13:30:00, 24.91000, 1.06257E-002, 331.65745, 33.17780, 1.18780, 0.00000
 Zone Sizing Information, DINING_FLR_6 ZN, Heating, 8809.88636, 11012.35795, 0.39231, 1.18780, VANCOUVER INTL AP ANN HTG 99.6% CONDNS DB, 12/21 10:00:00, -6.10000, 2.25331E-003, 331.65745, 33.17780, 1.18780, 0.00000
 Zone Sizing Information, KITCHEN_FLR_6 ZN, Cooling, 12177.19503, 14003.77428, 0.89315, 1.02712, VANCOUVER INTL AP ANN CLG .4% CONDNS DB=>MWB, 7/21 09:00:00, 20.92000, 1.06257E-002, 103.30446, 5.16710, 0.14169, 0.00000
 Zone Sizing Information, KITCHEN_FLR_6 ZN, Heating, 3995.79731, 4994.74663, 0.16479, 0.20598, VANCOUVER INTL AP ANN HTG 99.6% CONDNS DB, 12/21 09:10:00, -6.10000, 2.25331E-003, 103.30446, 5.16710, 0.14169, 0.00000
 Zone Sizing Information, LAUNDRY_FLR_1 ZN, Cooling, 2480.84978, 2852.97725, 0.20195, 0.23224, VANCOUVER INTL AP ANN CLG .4% CONDNS DB=>MWB, 7/21 14:20:00, 25.10000, 1.06257E-002, 78.03947, 3.90339, 6.62056E-002, 0.00000
 Zone Sizing Information, LAUNDRY_FLR_1 ZN, Heating, 329.27192, 411.58990, 1.41659E-002, 6.62056E-002, VANCOUVER INTL AP ANN HTG 99.6% CONDNS DB, 12/21 08:30:00, -6.10000, 2.25331E-003, 78.03947, 3.90339, 6.62056E-002, 0.00000
 Zone Sizing Information, LOBBY_FLR_1 ZN, Cooling, 36268.12547, 41708.34429, 2.95276, 3.39567, VANCOUVER INTL AP ANN CLG .4% CONDNS DB=>MWB, 7/21 13:20:00, 24.84667, 1.06257E-002, 1308.18612, 130.86615, 1.88070, 0.00000
 Zone Sizing Information, LOBBY_FLR_1 ZN, Heating, 0.00000, 0.00000, 0.00000, 1.88070, VANCOUVER INTL AP ANN HTG 99.6% CONDNS DB, , -6.10000, 2.25331E-003, 1308.18612, 130.86615, 1.88070, 0.00000
 Zone Sizing Information, MECH_FLR_1 ZN, Cooling, 1482.51811, 1704.89583, 0.12068, 0.13878, VANCOUVER INTL AP ANN CLG .4% CONDNS DB=>MWB, 7/21 14:10:00, 25.10000, 1.06257E-002, 164.24319, 0.82151, 5.00613E-002, 0.00000
 Zone Sizing Information, MECH_FLR_1 ZN, Heating, 0.00000, 0.00000, 0.00000, 5.00613E-002, VANCOUVER INTL AP ANN HTG 99.6% CONDNS DB, , -6.10000, 2.25331E-003, 164.24319, 0.82151, 5.00613E-002, 0.00000
 Zone Sizing Information, RETAIL_1_FLR_1 ZN, Cooling, 4776.86609, 5493.39600, 0.38885, 0.44717, VANCOUVER INTL AP ANN CLG .4% CONDNS DB=>MWB, 7/21 13:00:00, 24.72000, 1.06257E-002, 67.07136, 2.23652, 7.83662E-002, 0.00000
 Zone Sizing Information, RETAIL_1_FLR_1 ZN, Heating, 1782.49115, 2228.11394, 7.91010E-002, 9.88763E-002, VANCOUVER INTL AP ANN HTG 99.6% CONDNS DB, 12/21 09:00:00, -6.10000, 2.25331E-003, 67.07136, 2.23652, 7.83662E-002, 0.00000
 Zone Sizing Information, RETAIL_2_FLR_1 ZN, Cooling, 1928.78043, 2218.09750, 0.15701, 0.18056, VANCOUVER INTL AP ANN CLG .4% CONDNS DB=>MWB, 7/21 14:00:00, 25.10000, 1.06257E-002, 77.66889, 2.58990, 9.07483E-002, 0.00000
 Zone Sizing Information, RETAIL_2_FLR_1 ZN, Heating, 60.09202, 75.11502, 2.66978E-003, 9.07483E-002, VANCOUVER INTL AP ANN HTG 99.6% CONDNS DB, 12/21 08:10:00, -6.10000, 2.25331E-003, 77.66889, 2.58990, 9.07483E-002, 0.00000
 Zone Sizing Information, ROOM_1_FLR_3 ZN, Cooling, 13578.52760, 15615.30674, 1.10530, 1.27109, VANCOUVER INTL AP ANN CLG .4% CONDNS DB=>MWB, 7/21 17:40:00, 23.52933, 1.06257E-002, 39.02202, 1.56145, 8.72220E-002, 0.00000
 Zone Sizing Information, ROOM_1_FLR_3 ZN, Heating, 6412.32319, 8015.40398, 0.28696, 0.35870, VANCOUVER INTL AP ANN HTG 99.6% CONDNS DB, 12/21 09:00:00, -6.10000, 2.25331E-003, 39.02202, 1.56145, 8.72220E-002, 0.00000
 Zone Sizing Information, ROOM_1_FLR_6 ZN, Cooling, 3727.62660, 4286.77059, 0.30344, 0.34895, VANCOUVER INTL AP ANN CLG .4% CONDNS DB=>MWB, 7/21 17:20:00, 23.78267, 1.06257E-002, 39.02202, 1.56145, 2.18055E-002, 0.00000
 Zone Sizing Information, ROOM_1_FLR_6 ZN, Heating, 2041.46101, 2551.82627, 9.15263E-002, 0.11441, VANCOUVER INTL AP ANN HTG 99.6% CONDNS DB, 12/21 09:00:00, -6.10000, 2.25331E-003, 39.02202, 1.56145, 2.18055E-002, 0.00000
 Zone Sizing Information, ROOM_2_FLR_3 ZN, Cooling, 13263.38047, 15252.88755, 1.07965, 1.24160, VANCOUVER INTL AP ANN CLG .4% CONDNS DB=>MWB, 7/21 17:50:00, 23.40267, 1.06257E-002, 39.01745, 1.56127, 8.72118E-002, 0.00000
 Zone Sizing Information, ROOM_2_FLR_3 ZN, Heating, 6411.93150, 8014.91438, 0.28694, 0.35867, VANCOUVER INTL AP ANN HTG 99.6% CONDNS DB, 12/21 09:00:00, -6.10000, 2.25331E-003, 39.01745, 1.56127, 8.72118E-002, 0.00000
 Zone Sizing Information, ROOM_2_FLR_6 ZN, Cooling, 3542.59624, 4073.98567, 0.28838, 0.33163, VANCOUVER INTL AP ANN CLG .4% CONDNS DB=>MWB, 7/21 17:30:00, 23.65600, 1.06257E-002, 39.01745, 1.56127, 2.18029E-002, 0.00000
 Zone Sizing Information, ROOM_2_FLR_6 ZN, Heating, 2015.32360, 2519.15450, 9.03465E-002, 0.11293, VANCOUVER INTL AP ANN HTG 99.6% CONDNS DB, 12/21 09:00:00, -6.10000, 2.25331E-003, 39.01745, 1.56127, 2.18029E-002, 0.00000
 Zone Sizing Information, ROOM_3_MULT19_FLR_3 ZN, Cooling, 61713.38271, 70970.39011, 5.02342, 5.77694, VANCOUVER INTL AP ANN CLG .4% CONDNS DB=>MWB, 7/21 13:50:00, 25.03667, 1.06257E-002, 24.52384, 0.98131, 1.04150, 0.00000
 Zone Sizing Information, ROOM_3_MULT19_FLR_3 ZN, Heating, 54798.66989, 68498.33736, 2.44546, 3.05683, VANCOUVER INTL AP ANN HTG 99.6% CONDNS DB, 12/21 09:00:00, -6.10000, 2.25331E-003, 24.52384, 0.98131, 1.04150, 0.00000
 Zone Sizing Information, ROOM_3_MULT9_FLR_6 ZN, Cooling, 15269.10284, 17559.46827, 1.24293, 1.42937, VANCOUVER INTL AP ANN CLG .4% CONDNS DB=>MWB, 7/21 13:30:00, 24.91000, 1.06257E-002, 24.53055, 0.98158, 0.12337, 0.00000
 Zone Sizing Information, ROOM_3_MULT9_FLR_6 ZN, Heating, 11554.01674, 14442.52093, 0.51802, 0.64753, VANCOUVER INTL AP ANN HTG 99.6% CONDNS DB, 12/21 09:00:00, -6.10000, 2.25331E-003, 24.53055, 0.98158, 0.12337, 0.00000
 Zone Sizing Information, ROOM_4_MULT19_FLR_3 ZN, Cooling, 19012.08407, 21863.89668, 1.54759, 1.77972, VANCOUVER INTL AP ANN CLG .4% CONDNS DB=>MWB, 7/21 20:00:00, 21.30000, 1.06257E-002, 24.53055, 0.98158, 1.04178, 0.00000
 Zone Sizing Information, ROOM_4_MULT19_FLR_3 ZN, Heating, 54814.06235, 68517.57793, 2.44615, 3.05768, VANCOUVER INTL AP ANN HTG 99.6% CONDNS DB, 12/21 09:00:00, -6.10000, 2.25331E-003, 24.53055, 0.98158, 1.04178, 0.00000
 Zone Sizing Information, ROOM_5_FLR_3 ZN, Cooling, 12703.40019, 14608.91021, 1.03407, 1.18918, VANCOUVER INTL AP ANN CLG .4% CONDNS DB=>MWB, 7/21 09:30:00, 21.56600, 1.06257E-002, 39.02202, 1.56145, 8.72220E-002, 0.00000
 Zone Sizing Information, ROOM_5_FLR_3 ZN, Heating, 6450.39346, 8062.99183, 0.28868, 0.36085, VANCOUVER INTL AP ANN HTG 99.6% CONDNS DB, 12/21 09:00:00, -6.10000, 2.25331E-003, 39.02202, 1.56145, 8.72220E-002, 0.00000
 Zone Sizing Information, ROOM_6_FLR_3 ZN, Cooling, 12562.13523, 14446.45552, 1.02257, 1.17595, VANCOUVER INTL AP ANN CLG .4% CONDNS DB=>MWB, 7/21 09:20:00, 21.35067, 1.06257E-002, 39.01745, 1.56127, 8.72118E-002, 0.00000
 Zone Sizing Information, ROOM_6_FLR_3 ZN, Heating, 6450.00261, 8062.50327, 0.28866, 0.36083, VANCOUVER INTL AP ANN HTG 99.6% CONDNS DB, 12/21 09:00:00, -6.10000, 2.25331E-003, 39.01745, 1.56127, 8.72118E-002, 0.00000
 Zone Sizing Information, STORAGE_FLR_1 ZN, Cooling, 1041.51475, 1197.74196, 8.47788E-002, 9.74956E-002, VANCOUVER INTL AP ANN CLG .4% CONDNS DB=>MWB, 7/21 14:00:00, 25.10000, 1.06257E-002, 94.75927, 0.94794, 3.36964E-002, 0.00000
 Zone Sizing Information, STORAGE_FLR_1 ZN, Heating, 0.00000, 0.00000, 0.00000, 3.36964E-002, VANCOUVER INTL AP ANN HTG 99.6% CONDNS DB, , -6.10000, 2.25331E-003, 94.75927, 0.94794, 3.36964E-002, 0.00000
! <Component Sizing Information>, Component Type, Component Name, Input Field Description, Value
 Component Sizing Information, ZoneHVAC:IdealLoadsAirSystem, ZONE HVAC IDEAL LOADS AIR SYSTEM 1, User-Specified Maximum Heating Air Flow Rate [m3/s], 0.00000
 Component Sizing Information, ZoneHVAC:IdealLoadsAirSystem, ZONE HVAC IDEAL LOADS AIR SYSTEM 1, User-Specified Maximum Cooling Air Flow Rate [m3/s], 0.00000
 Component Sizing Information, ZoneHVAC:IdealLoadsAirSystem, ZONE HVAC IDEAL LOADS AIR SYSTEM 2, User-Specified Maximum Heating Air Flow Rate [m3/s], 0.00000
 Component Sizing Information, ZoneHVAC:IdealLoadsAirSystem, ZONE HVAC IDEAL LOADS AIR SYSTEM 2, User-Specified Maximum Cooling Air Flow Rate [m3/s], 0.00000
 Component Sizing Information, ZoneHVAC:IdealLoadsAirSystem, ZONE HVAC IDEAL LOADS AIR SYSTEM 3, User-Specified Maximum Heating Air Flow Rate [m3/s], 0.00000
 Component Sizing Information, ZoneHVAC:IdealLoadsAirSystem, ZONE HVAC IDEAL LOADS AIR SYSTEM 3, User-Specified Maximum Cooling Air Flow Rate [m3/s], 0.00000
 Component Sizing Information, ZoneHVAC:IdealLoadsAirSystem, ZONE HVAC IDEAL LOADS AIR SYSTEM 4, User-Specified Maximum Heating Air Flow Rate [m3/s], 0.00000
 Component Sizing Information, ZoneHVAC:IdealLoadsAirSystem, ZONE HVAC IDEAL LOADS AIR SYSTEM 4, User-Specified Maximum Cooling Air Flow Rate [m3/s], 0.00000
 Component Sizing Information, ZoneHVAC:IdealLoadsAirSystem, ZONE HVAC IDEAL LOADS AIR SYSTEM 5, User-Specified Maximum Heating Air Flow Rate [m3/s], 0.00000
 Component Sizing Information, ZoneHVAC:IdealLoadsAirSystem, ZONE HVAC IDEAL LOADS AIR SYSTEM 5, User-Specified Maximum Cooling Air Flow Rate [m3/s], 0.00000
 Component Sizing Information, ZoneHVAC:IdealLoadsAirSystem, ZONE HVAC IDEAL LOADS AIR SYSTEM 6, User-Specified Maximum Heating Air Flow Rate [m3/s], 0.00000
 Component Sizing Information, ZoneHVAC:IdealLoadsAirSystem, ZONE HVAC IDEAL LOADS AIR SYSTEM 6, User-Specified Maximum Cooling Air Flow Rate [m3/s], 0.00000
 Component Sizing Information, ZoneHVAC:IdealLoadsAirSystem, ZONE HVAC IDEAL LOADS AIR SYSTEM 7, User-Specified Maximum Heating Air Flow Rate [m3/s], 0.00000
 Component Sizing Information, ZoneHVAC:IdealLoadsAirSystem, ZONE HVAC IDEAL LOADS AIR SYSTEM 7, User-Specified Maximum Cooling Air Flow Rate [m3/s], 0.00000
 Component Sizing Information, ZoneHVAC:IdealLoadsAirSystem, ZONE HVAC IDEAL LOADS AIR SYSTEM 8, User-Specified Maximum Heating Air Flow Rate [m3/s], 0.00000
 Component Sizing Information, ZoneHVAC:IdealLoadsAirSystem, ZONE HVAC IDEAL LOADS AIR SYSTEM 8, User-Specified Maximum Cooling Air Flow Rate [m3/s], 0.00000
 Component Sizing Information, ZoneHVAC:IdealLoadsAirSystem, ZONE HVAC IDEAL LOADS AIR SYSTEM 9, User-Specified Maximum Heating Air Flow Rate [m3/s], 0.00000
 Component Sizing Information, ZoneHVAC:IdealLoadsAirSystem, ZONE HVAC IDEAL LOADS AIR SYSTEM 9, User-Specified Maximum Cooling Air Flow Rate [m3/s], 0.00000
 Component Sizing Information, ZoneHVAC:IdealLoadsAirSystem, ZONE HVAC IDEAL LOADS AIR SYSTEM 10, User-Specified Maximum Heating Air Flow Rate [m3/s], 0.00000
 Component Sizing Information, ZoneHVAC:IdealLoadsAirSystem, ZONE HVAC IDEAL LOADS AIR SYSTEM 10, User-Specified Maximum Cooling Air Flow Rate [m3/s], 0.00000
 Component Sizing Information, ZoneHVAC:IdealLoadsAirSystem, ZONE HVAC IDEAL LOADS AIR SYSTEM 11, User-Specified Maximum Heating Air Flow Rate [m3/s], 0.00000
 Component Sizing Information, ZoneHVAC:IdealLoadsAirSystem, ZONE HVAC IDEAL LOADS AIR SYSTEM 11, User-Specified Maximum Cooling Air Flow Rate [m3/s], 0.00000
 Component Sizing Information, ZoneHVAC:IdealLoadsAirSystem, ZONE HVAC IDEAL LOADS AIR SYSTEM 12, User-Specified Maximum Heating Air Flow Rate [m3/s], 0.00000
 Component Sizing Information, ZoneHVAC:IdealLoadsAirSystem, ZONE HVAC IDEAL LOADS AIR SYSTEM 12, User-Specified Maximum Cooling Air Flow Rate [m3/s], 0.00000
 Component Sizing Information, ZoneHVAC:IdealLoadsAirSystem, ZONE HVAC IDEAL LOADS AIR SYSTEM 13, User-Specified Maximum Heating Air Flow Rate [m3/s], 0.00000
 Component Sizing Information, ZoneHVAC:IdealLoadsAirSystem, ZONE HVAC IDEAL LOADS AIR SYSTEM 13, User-Specified Maximum Cooling Air Flow Rate [m3/s], 0.00000
 Component Sizing Information, ZoneHVAC:IdealLoadsAirSystem, ZONE HVAC IDEAL LOADS AIR SYSTEM 14, User-Specified Maximum Heating Air Flow Rate [m3/s], 0.00000
 Component Sizing Information, ZoneHVAC:IdealLoadsAirSystem, ZONE HVAC IDEAL LOADS AIR SYSTEM 14, User-Specified Maximum Cooling Air Flow Rate [m3/s], 0.00000
 Component Sizing Information, ZoneHVAC:IdealLoadsAirSystem, ZONE HVAC IDEAL LOADS AIR SYSTEM 15, User-Specified Maximum Heating Air Flow Rate [m3/s], 0.00000
 Component Sizing Information, ZoneHVAC:IdealLoadsAirSystem, ZONE HVAC IDEAL LOADS AIR SYSTEM 15, User-Specified Maximum Cooling Air Flow Rate [m3/s], 0.00000
 Component Sizing Information, ZoneHVAC:IdealLoadsAirSystem, ZONE HVAC IDEAL LOADS AIR SYSTEM 16, User-Specified Maximum Heating Air Flow Rate [m3/s], 0.00000
 Component Sizing Information, ZoneHVAC:IdealLoadsAirSystem, ZONE HVAC IDEAL LOADS AIR SYSTEM 16, User-Specified Maximum Cooling Air Flow Rate [m3/s], 0.00000
 Component Sizing Information, ZoneHVAC:IdealLoadsAirSystem, ZONE HVAC IDEAL LOADS AIR SYSTEM 17, User-Specified Maximum Heating Air Flow Rate [m3/s], 0.00000
 Component Sizing Information, ZoneHVAC:IdealLoadsAirSystem, ZONE HVAC IDEAL LOADS AIR SYSTEM 17, User-Specified Maximum Cooling Air Flow Rate [m3/s], 0.00000
 Component Sizing Information, ZoneHVAC:IdealLoadsAirSystem, ZONE HVAC IDEAL LOADS AIR SYSTEM 18, User-Specified Maximum Heating Air Flow Rate [m3/s], 0.00000
 Component Sizing Information, ZoneHVAC:IdealLoadsAirSystem, ZONE HVAC IDEAL LOADS AIR SYSTEM 18, User-Specified Maximum Cooling Air Flow Rate [m3/s], 0.00000
 Component Sizing Information, ZoneHVAC:IdealLoadsAirSystem, ZONE HVAC IDEAL LOADS AIR SYSTEM 19, User-Specified Maximum Heating Air Flow Rate [m3/s], 0.00000
 Component Sizing Information, ZoneHVAC:IdealLoadsAirSystem, ZONE HVAC IDEAL LOADS AIR SYSTEM 19, User-Specified Maximum Cooling Air Flow Rate [m3/s], 0.00000
 Component Sizing Information, ZoneHVAC:IdealLoadsAirSystem, ZONE HVAC IDEAL LOADS AIR SYSTEM 20, User-Specified Maximum Heating Air Flow Rate [m3/s], 0.00000
 Component Sizing Information, ZoneHVAC:IdealLoadsAirSystem, ZONE HVAC IDEAL LOADS AIR SYSTEM 20, User-Specified Maximum Cooling Air Flow Rate [m3/s], 0.00000
 Component Sizing Information, ZoneHVAC:IdealLoadsAirSystem, ZONE HVAC IDEAL LOADS AIR SYSTEM 21, User-Specified Maximum Heating Air Flow Rate [m3/s], 0.00000
 Component Sizing Information, ZoneHVAC:IdealLoadsAirSystem, ZONE HVAC IDEAL LOADS AIR SYSTEM 21, User-Specified Maximum Cooling Air Flow Rate [m3/s], 0.00000
 Component Sizing Information, ZoneHVAC:IdealLoadsAirSystem, ZONE HVAC IDEAL LOADS AIR SYSTEM 22, User-Specified Maximum Heating Air Flow Rate [m3/s], 0.00000
 Component Sizing Information, ZoneHVAC:IdealLoadsAirSystem, ZONE HVAC IDEAL LOADS AIR SYSTEM 22, User-Specified Maximum Cooling Air Flow Rate [m3/s], 0.00000
! <Environment>,Environment Name,Environment Type, Start Date, End Date, Start DayOfWeek, Duration {#days}, Source:Start DayOfWeek,  Use Daylight Saving, Use Holidays, Apply Weekend Holiday Rule,  Use Rain Values, Use Snow Values
! <Environment:Special Days>, Special Day Name, Special Day Type, Source, Start Date, Duration {#days}
! <Environment:Daylight Saving>, Daylight Saving Indicator, Source, Start Date, End Date
! <Environment:WarmupDays>, NumberofWarmupDays
Environment,VANCOUVER INTL AP ANN CLG .4% CONDNS DB=>MWB,SizingPeriod:DesignDay,07/21,07/21,SummerDesignDay,1,N/A,N/A,N/A,N/A,N/A,N/A
Environment:Daylight Saving,No,SizingPeriod:DesignDay
! <Environment:Design Day Data>, Max Dry-Bulb Temp {C}, Temp Range {dC}, Temp Range Ind Type, Hum Ind Value at Max Temp, Hum Ind Type,Pressure {Pa}, Wind Direction {deg CW from N}, Wind Speed {m/s}, Clearness, Rain, Snow
! <Environment:Design Day Misc>,DayOfYear,ASHRAE A Coeff,ASHRAE B Coeff,ASHRAE C Coeff,Solar Constant-Annual Variation,Eq of Time {minutes}, Solar Declination Angle {deg}, Solar Model
Environment:Design Day Data,25.10,7.60,DefaultMultipliers,101273,300,3.7,0.00,No,No
Environment:Design Day Misc,202,1084.4,0.2082,0.1365,1.0,-6.23,20.6,ASHRAETau
Environment:WarmupDays,  6
! <Tabular Report>,Style,Unit Conversion
Tabular Report,HTML,None
! <Warmup Convergence Information>,Zone Name,Environment Type/Name,Average Warmup Temperature Difference {deltaC},Std Dev Warmup Temperature Difference {deltaC},Max Temperature Pass/Fail Convergence,Min Temperature Pass/Fail Convergence,Average Warmup Load Difference {W},Std Dev Warmup Load Difference {W},Heating Load Pass/Fail Convergence,Cooling Load Pass/Fail Convergence
 Warmup Convergence Information,BANQUET_FLR_6 ZN,SizingPeriod: VANCOUVER INTL AP ANN CLG .4% CONDNS DB=>MWB,7.5084563532E-002,0.1359585599,Pass,Pass,5.7629295879E-002,0.1117326385,Pass,Pass
 Warmup Convergence Information,BASEMENT ZN,SizingPeriod: VANCOUVER INTL AP ANN CLG .4% CONDNS DB=>MWB,1.5252088857E-002,2.8856962308E-002,Pass,Pass,4.0757153752E-002,0.2278695064,Pass,Pass
 Warmup Convergence Information,CAFE_FLR_1 ZN,SizingPeriod: VANCOUVER INTL AP ANN CLG .4% CONDNS DB=>MWB,4.0158860067E-002,6.2405818161E-002,Pass,Pass,3.3644749747E-002,4.6631347920E-002,Pass,Pass
 Warmup Convergence Information,CORRIDOR_FLR_3 ZN,SizingPeriod: VANCOUVER INTL AP ANN CLG .4% CONDNS DB=>MWB,2.3691412321E-002,6.9307593028E-002,Pass,Pass,7.9328349136E-002,0.6824111854,Pass,Pass
 Warmup Convergence Information,CORRIDOR_FLR_6 ZN,SizingPeriod: VANCOUVER INTL AP ANN CLG .4% CONDNS DB=>MWB,6.6102190501E-002,0.1001411950,Pass,Pass,9.6255369255E-002,0.7289666670,Pass,Pass
 Warmup Convergence Information,DINING_FLR_6 ZN,SizingPeriod: VANCOUVER INTL AP ANN CLG .4% CONDNS DB=>MWB,7.4878982041E-002,0.1298405606,Pass,Pass,5.0547974576E-002,9.8411794507E-002,Pass,Pass
 Warmup Convergence Information,KITCHEN_FLR_6 ZN,SizingPeriod: VANCOUVER INTL AP ANN CLG .4% CONDNS DB=>MWB,0.1408690164,0.5489010644,Pass,Pass,4.3129345213E-002,8.9601495373E-002,Pass,Pass
 Warmup Convergence Information,LAUNDRY_FLR_1 ZN,SizingPeriod: VANCOUVER INTL AP ANN CLG .4% CONDNS DB=>MWB,1.8533770317E-002,4.5022515567E-002,Pass,Pass,4.2755229743E-002,0.2538107320,Pass,Pass
 Warmup Convergence Information,LOBBY_FLR_1 ZN,SizingPeriod: VANCOUVER INTL AP ANN CLG .4% CONDNS DB=>MWB,4.6431994052E-014,4.4767976698E-014,Pass,Pass,9.1532402720E-003,6.4732732585E-003,Pass,Pass
 Warmup Convergence Information,MECH_FLR_1 ZN,SizingPeriod: VANCOUVER INTL AP ANN CLG .4% CONDNS DB=>MWB,1.0940734160E-002,3.1918100565E-002,Pass,Pass,5.4402945022E-002,0.3914351696,Pass,Pass
 Warmup Convergence Information,RETAIL_1_FLR_1 ZN,SizingPeriod: VANCOUVER INTL AP ANN CLG .4% CONDNS DB=>MWB,3.0711651954E-002,4.4948478951E-002,Pass,Pass,3.9103454546E-002,8.3223138537E-002,Pass,Pass
 Warmup Convergence Information,RETAIL_2_FLR_1 ZN,SizingPeriod: VANCOUVER INTL AP ANN CLG .4% CONDNS DB=>MWB,2.2065162751E-002,3.7954326690E-002,Pass,Pass,2.7889432105E-002,0.1058746694,Pass,Pass
 Warmup Convergence Information,ROOM_1_FLR_3 ZN,SizingPeriod: VANCOUVER INTL AP ANN CLG .4% CONDNS DB=>MWB,1.7751480217E-002,3.0541762233E-002,Pass,Pass,4.7158083625E-002,4.9339107828E-002,Pass,Pass
 Warmup Convergence Information,ROOM_1_FLR_6 ZN,SizingPeriod: VANCOUVER INTL AP ANN CLG .4% CONDNS DB=>MWB,4.3004749685E-002,6.3122428471E-002,Pass,Pass,5.2182883969E-002,7.3858196515E-002,Pass,Pass
 Warmup Convergence Information,ROOM_2_FLR_3 ZN,SizingPeriod: VANCOUVER INTL AP ANN CLG .4% CONDNS DB=>MWB,1.7753429520E-002,2.9099881073E-002,Pass,Pass,4.6714117635E-002,4.6971067357E-002,Pass,Pass
 Warmup Convergence Information,ROOM_2_FLR_6 ZN,SizingPeriod: VANCOUVER INTL AP ANN CLG .4% CONDNS DB=>MWB,4.3104316910E-002,5.7649450463E-002,Pass,Pass,5.3657661598E-002,7.1839683274E-002,Pass,Pass
 Warmup Convergence Information,ROOM_3_MULT19_FLR_3 ZN,SizingPeriod: VANCOUVER INTL AP ANN CLG .4% CONDNS DB=>MWB,1.2796116623E-002,2.1111476452E-002,Pass,Pass,3.7312549661E-002,4.0387849294E-002,Pass,Pass
 Warmup Convergence Information,ROOM_3_MULT9_FLR_6 ZN,SizingPeriod: VANCOUVER INTL AP ANN CLG .4% CONDNS DB=>MWB,3.7425022633E-002,5.4754723239E-002,Pass,Pass,4.5070256322E-002,5.5934691619E-002,Pass,Pass
 Warmup Convergence Information,ROOM_4_MULT19_FLR_3 ZN,SizingPeriod: VANCOUVER INTL AP ANN CLG .4% CONDNS DB=>MWB,1.2788249576E-002,1.9388486539E-002,Pass,Pass,2.1222089533E-002,2.6728020972E-002,Pass,Pass
 Warmup Convergence Information,ROOM_5_FLR_3 ZN,SizingPeriod: VANCOUVER INTL AP ANN CLG .4% CONDNS DB=>MWB,1.8599887496E-002,5.5615189291E-002,Pass,Pass,3.9747047482E-002,4.7975105622E-002,Pass,Pass
 Warmup Convergence Information,ROOM_6_FLR_3 ZN,SizingPeriod: VANCOUVER INTL AP ANN CLG .4% CONDNS DB=>MWB,1.9435373031E-002,5.9250999265E-002,Pass,Pass,3.9808306944E-002,4.5062991873E-002,Pass,Pass
 Warmup Convergence Information,STORAGE_FLR_1 ZN,SizingPeriod: VANCOUVER INTL AP ANN CLG .4% CONDNS DB=>MWB,1.1644662756E-002,3.5763990450E-002,Pass,Pass,5.4088567127E-002,0.3903207023,Pass,Pass
Environment,VANCOUVER INTL AP ANN HTG 99.6% CONDNS DB,SizingPeriod:DesignDay,12/21,12/21,WinterDesignDay,1,N/A,N/A,N/A,N/A,N/A,N/A
Environment:Daylight Saving,No,SizingPeriod:DesignDay
Environment:Design Day Data,-6.10,0.00,DefaultMultipliers,101273,100,3.0,0.00,No,No
Environment:Design Day Misc,355,1232.8,0.1424,5.7719E-002,1.0,2.45,-23.5,ASHRAEClearSky
Environment:WarmupDays,  6
 Warmup Convergence Information,BANQUET_FLR_6 ZN,SizingPeriod: VANCOUVER INTL AP ANN HTG 99.6% CONDNS DB,5.5555555556E-002,0.3774861486,Pass,Pass,0.3094557695,2.5573796019,Pass,Pass
 Warmup Convergence Information,BASEMENT ZN,SizingPeriod: VANCOUVER INTL AP ANN HTG 99.6% CONDNS DB,6.4617311223E-002,0.3018487895,Pass,Pass,0.3129594890,1.0365239973,Pass,Pass
 Warmup Convergence Information,CAFE_FLR_1 ZN,SizingPeriod: VANCOUVER INTL AP ANN HTG 99.6% CONDNS DB,5.5780109438E-002,0.3535945619,Pass,Pass,9.3493108877E-002,0.4989685257,Pass,Pass
 Warmup Convergence Information,CORRIDOR_FLR_3 ZN,SizingPeriod: VANCOUVER INTL AP ANN HTG 99.6% CONDNS DB,6.0886954577E-002,0.2679080636,Pass,Pass,0.7487096681,5.2726493126,Pass,Pass
 Warmup Convergence Information,CORRIDOR_FLR_6 ZN,SizingPeriod: VANCOUVER INTL AP ANN HTG 99.6% CONDNS DB,5.7520442295E-002,0.2891345534,Pass,Pass,0.1244520272,0.4634225109,Pass,Pass
 Warmup Convergence Information,DINING_FLR_6 ZN,SizingPeriod: VANCOUVER INTL AP ANN HTG 99.6% CONDNS DB,5.5555555556E-002,0.3774047004,Pass,Pass,0.2645533031,2.0554592702,Pass,Pass
 Warmup Convergence Information,KITCHEN_FLR_6 ZN,SizingPeriod: VANCOUVER INTL AP ANN HTG 99.6% CONDNS DB,5.5555555556E-002,0.3562604601,Pass,Pass,7.8998973248E-002,0.3790952774,Pass,Pass
 Warmup Convergence Information,LAUNDRY_FLR_1 ZN,SizingPeriod: VANCOUVER INTL AP ANN HTG 99.6% CONDNS DB,5.9105031165E-002,0.3036046758,Pass,Pass,0.3096160651,1.2233484018,Pass,Pass
 Warmup Convergence Information,LOBBY_FLR_1 ZN,SizingPeriod: VANCOUVER INTL AP ANN HTG 99.6% CONDNS DB,5.9012531490E-002,0.3281703871,Pass,Pass,0.1458042680,0.7161776468,Pass,Pass
 Warmup Convergence Information,MECH_FLR_1 ZN,SizingPeriod: VANCOUVER INTL AP ANN HTG 99.6% CONDNS DB,6.8934846721E-002,0.2928789905,Pass,Pass,0.1931127032,0.8116000172,Pass,Pass
 Warmup Convergence Information,RETAIL_1_FLR_1 ZN,SizingPeriod: VANCOUVER INTL AP ANN HTG 99.6% CONDNS DB,5.6404610988E-002,0.3386481593,Pass,Pass,0.1148832884,0.6556013217,Pass,Pass
 Warmup Convergence Information,RETAIL_2_FLR_1 ZN,SizingPeriod: VANCOUVER INTL AP ANN HTG 99.6% CONDNS DB,5.8242576574E-002,0.3178460787,Pass,Pass,0.2715001221,1.6037049820,Pass,Pass
 Warmup Convergence Information,ROOM_1_FLR_3 ZN,SizingPeriod: VANCOUVER INTL AP ANN HTG 99.6% CONDNS DB,5.6313044621E-002,0.3252094895,Pass,Pass,0.1522312609,1.0408612145,Pass,Pass
 Warmup Convergence Information,ROOM_1_FLR_6 ZN,SizingPeriod: VANCOUVER INTL AP ANN HTG 99.6% CONDNS DB,5.5791847212E-002,0.3395883104,Pass,Pass,5.5733524706E-002,0.3049677877,Pass,Pass
 Warmup Convergence Information,ROOM_2_FLR_3 ZN,SizingPeriod: VANCOUVER INTL AP ANN HTG 99.6% CONDNS DB,5.6312923567E-002,0.3252125271,Pass,Pass,0.1522352951,1.0407224599,Pass,Pass
 Warmup Convergence Information,ROOM_2_FLR_6 ZN,SizingPeriod: VANCOUVER INTL AP ANN HTG 99.6% CONDNS DB,5.5806331269E-002,0.3407171518,Pass,Pass,5.3097162091E-002,0.2836062569,Pass,Pass
 Warmup Convergence Information,ROOM_3_MULT19_FLR_3 ZN,SizingPeriod: VANCOUVER INTL AP ANN HTG 99.6% CONDNS DB,5.7755242754E-002,0.2937630746,Pass,Pass,0.1327532582,0.3818421470,Pass,Pass
 Warmup Convergence Information,ROOM_3_MULT9_FLR_6 ZN,SizingPeriod: VANCOUVER INTL AP ANN HTG 99.6% CONDNS DB,5.5858544240E-002,0.3300317517,Pass,Pass,0.1094909316,0.8847294541,Pass,Pass
 Warmup Convergence Information,ROOM_4_MULT19_FLR_3 ZN,SizingPeriod: VANCOUVER INTL AP ANN HTG 99.6% CONDNS DB,5.7755208921E-002,0.2937649440,Pass,Pass,0.1328183038,0.3821552019,Pass,Pass
 Warmup Convergence Information,ROOM_5_FLR_3 ZN,SizingPeriod: VANCOUVER INTL AP ANN HTG 99.6% CONDNS DB,5.6300812694E-002,0.3256765500,Pass,Pass,0.1552355268,1.0381336808,Pass,Pass
 Warmup Convergence Information,ROOM_6_FLR_3 ZN,SizingPeriod: VANCOUVER INTL AP ANN HTG 99.6% CONDNS DB,5.6300689922E-002,0.3256796703,Pass,Pass,0.1552612914,1.0381438487,Pass,Pass
 Warmup Convergence Information,STORAGE_FLR_1 ZN,SizingPeriod: VANCOUVER INTL AP ANN HTG 99.6% CONDNS DB,6.5914160967E-002,0.2876387424,Pass,Pass,0.4742033715,3.5088799615,Pass,Pass
! <Program Control Information:Threads/Parallel Sims>, Threading Supported,Maximum Number of Threads, Env Set Threads (OMP_NUM_THREADS), EP Env Set Threads (EP_OMP_NUM_THREADS), IDF Set Threads, Number of Threads Used (Interior Radiant Exchange), Number Nominal Surfaces, Number Parallel Sims
Program Control:Threads/Parallel Sims, No,1, N/A, N/A, N/A, N/A, N/A, N/A
End of Data
