! Program Version,EnergyPlus, Version 8.9.0-eba93e8e1b, YMD=2018.09.18 17:19,
! Output:Meter Objects (applicable to this run)
Output:Meter,Electricity:Facility,hourly; !- [J]
Output:Meter:Cumulative,Electricity:Facility,hourly; !- [J]
Output:Meter,Electricity:Building,hourly; !- [J]
Output:Meter:Cumulative,Electricity:Building,hourly; !- [J]
Output:Meter,Electricity:Zone:CORRIDOR_FLR_3 ZN,hourly; !- [J]
Output:Meter:Cumulative,Electricity:Zone:CORRIDOR_FLR_3 ZN,hourly; !- [J]
Output:Meter,InteriorLights:Electricity,hourly; !- [J]
Output:Meter:Cumulative,InteriorLights:Electricity,hourly; !- [J]
Output:Meter,InteriorLights:Electricity:Zone:CORRIDOR_FLR_3 ZN,hourly; !- [J]
Output:Meter:Cumulative,InteriorLights:Electricity:Zone:CORRIDOR_FLR_3 ZN,hourly; !- [J]
Output:Meter,General:InteriorLights:Electricity,hourly; !- [J]
Output:Meter:Cumulative,General:InteriorLights:Electricity,hourly; !- [J]
Output:Meter,Electricity:Zone:CORRIDOR_FLR_6 ZN,hourly; !- [J]
Output:Meter:Cumulative,Electricity:Zone:CORRIDOR_FLR_6 ZN,hourly; !- [J]
Output:Meter,InteriorLights:Electricity:Zone:CORRIDOR_FLR_6 ZN,hourly; !- [J]
Output:Meter:Cumulative,InteriorLights:Electricity:Zone:CORRIDOR_FLR_6 ZN,hourly; !- [J]
Output:Meter,Electricity:Zone:BANQUET_FLR_6 ZN,hourly; !- [J]
Output:Meter:Cumulative,Electricity:Zone:BANQUET_FLR_6 ZN,hourly; !- [J]
Output:Meter,InteriorLights:Electricity:Zone:BANQUET_FLR_6 ZN,hourly; !- [J]
Output:Meter:Cumulative,InteriorLights:Electricity:Zone:BANQUET_FLR_6 ZN,hourly; !- [J]
Output:Meter,Electricity:Zone:DINING_FLR_6 ZN,hourly; !- [J]
Output:Meter:Cumulative,Electricity:Zone:DINING_FLR_6 ZN,hourly; !- [J]
Output:Meter,InteriorLights:Electricity:Zone:DINING_FLR_6 ZN,hourly; !- [J]
Output:Meter:Cumulative,InteriorLights:Electricity:Zone:DINING_FLR_6 ZN,hourly; !- [J]
Output:Meter,Electricity:Zone:MECH_FLR_1 ZN,hourly; !- [J]
Output:Meter:Cumulative,Electricity:Zone:MECH_FLR_1 ZN,hourly; !- [J]
Output:Meter,InteriorLights:Electricity:Zone:MECH_FLR_1 ZN,hourly; !- [J]
Output:Meter:Cumulative,InteriorLights:Electricity:Zone:MECH_FLR_1 ZN,hourly; !- [J]
Output:Meter,Electricity:Zone:KITCHEN_FLR_6 ZN,hourly; !- [J]
Output:Meter:Cumulative,Electricity:Zone:KITCHEN_FLR_6 ZN,hourly; !- [J]
Output:Meter,InteriorLights:Electricity:Zone:KITCHEN_FLR_6 ZN,hourly; !- [J]
Output:Meter:Cumulative,InteriorLights:Electricity:Zone:KITCHEN_FLR_6 ZN,hourly; !- [J]
Output:Meter,Electricity:Zone:ROOM_1_FLR_3 ZN,hourly; !- [J]
Output:Meter:Cumulative,Electricity:Zone:ROOM_1_FLR_3 ZN,hourly; !- [J]
Output:Meter,InteriorLights:Electricity:Zone:ROOM_1_FLR_3 ZN,hourly; !- [J]
Output:Meter:Cumulative,InteriorLights:Electricity:Zone:ROOM_1_FLR_3 ZN,hourly; !- [J]
Output:Meter,Electricity:Zone:ROOM_1_FLR_6 ZN,hourly; !- [J]
Output:Meter:Cumulative,Electricity:Zone:ROOM_1_FLR_6 ZN,hourly; !- [J]
Output:Meter,InteriorLights:Electricity:Zone:ROOM_1_FLR_6 ZN,hourly; !- [J]
Output:Meter:Cumulative,InteriorLights:Electricity:Zone:ROOM_1_FLR_6 ZN,hourly; !- [J]
Output:Meter,Electricity:Zone:ROOM_2_FLR_3 ZN,hourly; !- [J]
Output:Meter:Cumulative,Electricity:Zone:ROOM_2_FLR_3 ZN,hourly; !- [J]
Output:Meter,InteriorLights:Electricity:Zone:ROOM_2_FLR_3 ZN,hourly; !- [J]
Output:Meter:Cumulative,InteriorLights:Electricity:Zone:ROOM_2_FLR_3 ZN,hourly; !- [J]
Output:Meter,Electricity:Zone:ROOM_2_FLR_6 ZN,hourly; !- [J]
Output:Meter:Cumulative,Electricity:Zone:ROOM_2_FLR_6 ZN,hourly; !- [J]
Output:Meter,InteriorLights:Electricity:Zone:ROOM_2_FLR_6 ZN,hourly; !- [J]
Output:Meter:Cumulative,InteriorLights:Electricity:Zone:ROOM_2_FLR_6 ZN,hourly; !- [J]
Output:Meter,Electricity:Zone:ROOM_3_MULT19_FLR_3 ZN,hourly; !- [J]
Output:Meter:Cumulative,Electricity:Zone:ROOM_3_MULT19_FLR_3 ZN,hourly; !- [J]
Output:Meter,InteriorLights:Electricity:Zone:ROOM_3_MULT19_FLR_3 ZN,hourly; !- [J]
Output:Meter:Cumulative,InteriorLights:Electricity:Zone:ROOM_3_MULT19_FLR_3 ZN,hourly; !- [J]
Output:Meter,Electricity:Zone:ROOM_3_MULT9_FLR_6 ZN,hourly; !- [J]
Output:Meter:Cumulative,Electricity:Zone:ROOM_3_MULT9_FLR_6 ZN,hourly; !- [J]
Output:Meter,InteriorLights:Electricity:Zone:ROOM_3_MULT9_FLR_6 ZN,hourly; !- [J]
Output:Meter:Cumulative,InteriorLights:Electricity:Zone:ROOM_3_MULT9_FLR_6 ZN,hourly; !- [J]
Output:Meter,Electricity:Zone:ROOM_4_MULT19_FLR_3 ZN,hourly; !- [J]
Output:Meter:Cumulative,Electricity:Zone:ROOM_4_MULT19_FLR_3 ZN,hourly; !- [J]
Output:Meter,InteriorLights:Electricity:Zone:ROOM_4_MULT19_FLR_3 ZN,hourly; !- [J]
Output:Meter:Cumulative,InteriorLights:Electricity:Zone:ROOM_4_MULT19_FLR_3 ZN,hourly; !- [J]
Output:Meter,Electricity:Zone:ROOM_5_FLR_3 ZN,hourly; !- [J]
Output:Meter:Cumulative,Electricity:Zone:ROOM_5_FLR_3 ZN,hourly; !- [J]
Output:Meter,InteriorLights:Electricity:Zone:ROOM_5_FLR_3 ZN,hourly; !- [J]
Output:Meter:Cumulative,InteriorLights:Electricity:Zone:ROOM_5_FLR_3 ZN,hourly; !- [J]
Output:Meter,Electricity:Zone:ROOM_6_FLR_3 ZN,hourly; !- [J]
Output:Meter:Cumulative,Electricity:Zone:ROOM_6_FLR_3 ZN,hourly; !- [J]
Output:Meter,InteriorLights:Electricity:Zone:ROOM_6_FLR_3 ZN,hourly; !- [J]
Output:Meter:Cumulative,InteriorLights:Electricity:Zone:ROOM_6_FLR_3 ZN,hourly; !- [J]
Output:Meter,Electricity:Zone:LAUNDRY_FLR_1 ZN,hourly; !- [J]
Output:Meter:Cumulative,Electricity:Zone:LAUNDRY_FLR_1 ZN,hourly; !- [J]
Output:Meter,InteriorLights:Electricity:Zone:LAUNDRY_FLR_1 ZN,hourly; !- [J]
Output:Meter:Cumulative,InteriorLights:Electricity:Zone:LAUNDRY_FLR_1 ZN,hourly; !- [J]
Output:Meter,Electricity:Zone:LOBBY_FLR_1 ZN,hourly; !- [J]
Output:Meter:Cumulative,Electricity:Zone:LOBBY_FLR_1 ZN,hourly; !- [J]
Output:Meter,InteriorLights:Electricity:Zone:LOBBY_FLR_1 ZN,hourly; !- [J]
Output:Meter:Cumulative,InteriorLights:Electricity:Zone:LOBBY_FLR_1 ZN,hourly; !- [J]
Output:Meter,Electricity:Zone:CAFE_FLR_1 ZN,hourly; !- [J]
Output:Meter:Cumulative,Electricity:Zone:CAFE_FLR_1 ZN,hourly; !- [J]
Output:Meter,InteriorLights:Electricity:Zone:CAFE_FLR_1 ZN,hourly; !- [J]
Output:Meter:Cumulative,InteriorLights:Electricity:Zone:CAFE_FLR_1 ZN,hourly; !- [J]
Output:Meter,Electricity:Zone:RETAIL_1_FLR_1 ZN,hourly; !- [J]
Output:Meter:Cumulative,Electricity:Zone:RETAIL_1_FLR_1 ZN,hourly; !- [J]
Output:Meter,InteriorLights:Electricity:Zone:RETAIL_1_FLR_1 ZN,hourly; !- [J]
Output:Meter:Cumulative,InteriorLights:Electricity:Zone:RETAIL_1_FLR_1 ZN,hourly; !- [J]
Output:Meter,Electricity:Zone:RETAIL_2_FLR_1 ZN,hourly; !- [J]
Output:Meter:Cumulative,Electricity:Zone:RETAIL_2_FLR_1 ZN,hourly; !- [J]
Output:Meter,InteriorLights:Electricity:Zone:RETAIL_2_FLR_1 ZN,hourly; !- [J]
Output:Meter:Cumulative,InteriorLights:Electricity:Zone:RETAIL_2_FLR_1 ZN,hourly; !- [J]
Output:Meter,Electricity:Zone:BASEMENT ZN,hourly; !- [J]
Output:Meter:Cumulative,Electricity:Zone:BASEMENT ZN,hourly; !- [J]
Output:Meter,InteriorLights:Electricity:Zone:BASEMENT ZN,hourly; !- [J]
Output:Meter:Cumulative,InteriorLights:Electricity:Zone:BASEMENT ZN,hourly; !- [J]
Output:Meter,Electricity:Zone:STORAGE_FLR_1 ZN,hourly; !- [J]
Output:Meter:Cumulative,Electricity:Zone:STORAGE_FLR_1 ZN,hourly; !- [J]
Output:Meter,InteriorLights:Electricity:Zone:STORAGE_FLR_1 ZN,hourly; !- [J]
Output:Meter:Cumulative,InteriorLights:Electricity:Zone:STORAGE_FLR_1 ZN,hourly; !- [J]
Output:Meter,InteriorEquipment:Electricity,hourly; !- [J]
Output:Meter:Cumulative,InteriorEquipment:Electricity,hourly; !- [J]
Output:Meter,InteriorEquipment:Electricity:Zone:BANQUET_FLR_6 ZN,hourly; !- [J]
Output:Meter:Cumulative,InteriorEquipment:Electricity:Zone:BANQUET_FLR_6 ZN,hourly; !- [J]
Output:Meter,General:InteriorEquipment:Electricity,hourly; !- [J]
Output:Meter:Cumulative,General:InteriorEquipment:Electricity,hourly; !- [J]
Output:Meter,InteriorEquipment:Electricity:Zone:DINING_FLR_6 ZN,hourly; !- [J]
Output:Meter:Cumulative,InteriorEquipment:Electricity:Zone:DINING_FLR_6 ZN,hourly; !- [J]
Output:Meter,InteriorEquipment:Electricity:Zone:MECH_FLR_1 ZN,hourly; !- [J]
Output:Meter:Cumulative,InteriorEquipment:Electricity:Zone:MECH_FLR_1 ZN,hourly; !- [J]
Output:Meter,InteriorEquipment:Electricity:Zone:KITCHEN_FLR_6 ZN,hourly; !- [J]
Output:Meter:Cumulative,InteriorEquipment:Electricity:Zone:KITCHEN_FLR_6 ZN,hourly; !- [J]
Output:Meter,InteriorEquipment:Electricity:Zone:ROOM_1_FLR_3 ZN,hourly; !- [J]
Output:Meter:Cumulative,InteriorEquipment:Electricity:Zone:ROOM_1_FLR_3 ZN,hourly; !- [J]
Output:Meter,InteriorEquipment:Electricity:Zone:ROOM_1_FLR_6 ZN,hourly; !- [J]
Output:Meter:Cumulative,InteriorEquipment:Electricity:Zone:ROOM_1_FLR_6 ZN,hourly; !- [J]
Output:Meter,InteriorEquipment:Electricity:Zone:ROOM_2_FLR_3 ZN,hourly; !- [J]
Output:Meter:Cumulative,InteriorEquipment:Electricity:Zone:ROOM_2_FLR_3 ZN,hourly; !- [J]
Output:Meter,InteriorEquipment:Electricity:Zone:ROOM_2_FLR_6 ZN,hourly; !- [J]
Output:Meter:Cumulative,InteriorEquipment:Electricity:Zone:ROOM_2_FLR_6 ZN,hourly; !- [J]
Output:Meter,InteriorEquipment:Electricity:Zone:ROOM_3_MULT19_FLR_3 ZN,hourly; !- [J]
Output:Meter:Cumulative,InteriorEquipment:Electricity:Zone:ROOM_3_MULT19_FLR_3 ZN,hourly; !- [J]
Output:Meter,InteriorEquipment:Electricity:Zone:ROOM_3_MULT9_FLR_6 ZN,hourly; !- [J]
Output:Meter:Cumulative,InteriorEquipment:Electricity:Zone:ROOM_3_MULT9_FLR_6 ZN,hourly; !- [J]
Output:Meter,InteriorEquipment:Electricity:Zone:ROOM_4_MULT19_FLR_3 ZN,hourly; !- [J]
Output:Meter:Cumulative,InteriorEquipment:Electricity:Zone:ROOM_4_MULT19_FLR_3 ZN,hourly; !- [J]
Output:Meter,InteriorEquipment:Electricity:Zone:ROOM_5_FLR_3 ZN,hourly; !- [J]
Output:Meter:Cumulative,InteriorEquipment:Electricity:Zone:ROOM_5_FLR_3 ZN,hourly; !- [J]
Output:Meter,InteriorEquipment:Electricity:Zone:ROOM_6_FLR_3 ZN,hourly; !- [J]
Output:Meter:Cumulative,InteriorEquipment:Electricity:Zone:ROOM_6_FLR_3 ZN,hourly; !- [J]
Output:Meter,InteriorEquipment:Electricity:Zone:LAUNDRY_FLR_1 ZN,hourly; !- [J]
Output:Meter:Cumulative,InteriorEquipment:Electricity:Zone:LAUNDRY_FLR_1 ZN,hourly; !- [J]
Output:Meter,InteriorEquipment:Electricity:Zone:LOBBY_FLR_1 ZN,hourly; !- [J]
Output:Meter:Cumulative,InteriorEquipment:Electricity:Zone:LOBBY_FLR_1 ZN,hourly; !- [J]
Output:Meter,InteriorEquipment:Electricity:Zone:CAFE_FLR_1 ZN,hourly; !- [J]
Output:Meter:Cumulative,InteriorEquipment:Electricity:Zone:CAFE_FLR_1 ZN,hourly; !- [J]
Output:Meter,InteriorEquipment:Electricity:Zone:RETAIL_1_FLR_1 ZN,hourly; !- [J]
Output:Meter:Cumulative,InteriorEquipment:Electricity:Zone:RETAIL_1_FLR_1 ZN,hourly; !- [J]
Output:Meter,InteriorEquipment:Electricity:Zone:RETAIL_2_FLR_1 ZN,hourly; !- [J]
Output:Meter:Cumulative,InteriorEquipment:Electricity:Zone:RETAIL_2_FLR_1 ZN,hourly; !- [J]
Output:Meter,EnergyTransfer:Facility,hourly; !- [J]
Output:Meter:Cumulative,EnergyTransfer:Facility,hourly; !- [J]
Output:Meter,EnergyTransfer:Building,hourly; !- [J]
Output:Meter:Cumulative,EnergyTransfer:Building,hourly; !- [J]
Output:Meter,EnergyTransfer:Zone:BANQUET_FLR_6 ZN,hourly; !- [J]
Output:Meter:Cumulative,EnergyTransfer:Zone:BANQUET_FLR_6 ZN,hourly; !- [J]
Output:Meter,Heating:EnergyTransfer,hourly; !- [J]
Output:Meter:Cumulative,Heating:EnergyTransfer,hourly; !- [J]
Output:Meter,Heating:EnergyTransfer:Zone:BANQUET_FLR_6 ZN,hourly; !- [J]
Output:Meter:Cumulative,Heating:EnergyTransfer:Zone:BANQUET_FLR_6 ZN,hourly; !- [J]
Output:Meter,Cooling:EnergyTransfer,hourly; !- [J]
Output:Meter:Cumulative,Cooling:EnergyTransfer,hourly; !- [J]
Output:Meter,Cooling:EnergyTransfer:Zone:BANQUET_FLR_6 ZN,hourly; !- [J]
Output:Meter:Cumulative,Cooling:EnergyTransfer:Zone:BANQUET_FLR_6 ZN,hourly; !- [J]
Output:Meter,EnergyTransfer:Zone:BASEMENT ZN,hourly; !- [J]
Output:Meter:Cumulative,EnergyTransfer:Zone:BASEMENT ZN,hourly; !- [J]
Output:Meter,Heating:EnergyTransfer:Zone:BASEMENT ZN,hourly; !- [J]
Output:Meter:Cumulative,Heating:EnergyTransfer:Zone:BASEMENT ZN,hourly; !- [J]
Output:Meter,Cooling:EnergyTransfer:Zone:BASEMENT ZN,hourly; !- [J]
Output:Meter:Cumulative,Cooling:EnergyTransfer:Zone:BASEMENT ZN,hourly; !- [J]
Output:Meter,EnergyTransfer:Zone:CAFE_FLR_1 ZN,hourly; !- [J]
Output:Meter:Cumulative,EnergyTransfer:Zone:CAFE_FLR_1 ZN,hourly; !- [J]
Output:Meter,Heating:EnergyTransfer:Zone:CAFE_FLR_1 ZN,hourly; !- [J]
Output:Meter:Cumulative,Heating:EnergyTransfer:Zone:CAFE_FLR_1 ZN,hourly; !- [J]
Output:Meter,Cooling:EnergyTransfer:Zone:CAFE_FLR_1 ZN,hourly; !- [J]
Output:Meter:Cumulative,Cooling:EnergyTransfer:Zone:CAFE_FLR_1 ZN,hourly; !- [J]
Output:Meter,EnergyTransfer:Zone:CORRIDOR_FLR_3 ZN,hourly; !- [J]
Output:Meter:Cumulative,EnergyTransfer:Zone:CORRIDOR_FLR_3 ZN,hourly; !- [J]
Output:Meter,Heating:EnergyTransfer:Zone:CORRIDOR_FLR_3 ZN,hourly; !- [J]
Output:Meter:Cumulative,Heating:EnergyTransfer:Zone:CORRIDOR_FLR_3 ZN,hourly; !- [J]
Output:Meter,Cooling:EnergyTransfer:Zone:CORRIDOR_FLR_3 ZN,hourly; !- [J]
Output:Meter:Cumulative,Cooling:EnergyTransfer:Zone:CORRIDOR_FLR_3 ZN,hourly; !- [J]
Output:Meter,EnergyTransfer:Zone:CORRIDOR_FLR_6 ZN,hourly; !- [J]
Output:Meter:Cumulative,EnergyTransfer:Zone:CORRIDOR_FLR_6 ZN,hourly; !- [J]
Output:Meter,Heating:EnergyTransfer:Zone:CORRIDOR_FLR_6 ZN,hourly; !- [J]
Output:Meter:Cumulative,Heating:EnergyTransfer:Zone:CORRIDOR_FLR_6 ZN,hourly; !- [J]
Output:Meter,Cooling:EnergyTransfer:Zone:CORRIDOR_FLR_6 ZN,hourly; !- [J]
Output:Meter:Cumulative,Cooling:EnergyTransfer:Zone:CORRIDOR_FLR_6 ZN,hourly; !- [J]
Output:Meter,EnergyTransfer:Zone:DINING_FLR_6 ZN,hourly; !- [J]
Output:Meter:Cumulative,EnergyTransfer:Zone:DINING_FLR_6 ZN,hourly; !- [J]
Output:Meter,Heating:EnergyTransfer:Zone:DINING_FLR_6 ZN,hourly; !- [J]
Output:Meter:Cumulative,Heating:EnergyTransfer:Zone:DINING_FLR_6 ZN,hourly; !- [J]
Output:Meter,Cooling:EnergyTransfer:Zone:DINING_FLR_6 ZN,hourly; !- [J]
Output:Meter:Cumulative,Cooling:EnergyTransfer:Zone:DINING_FLR_6 ZN,hourly; !- [J]
Output:Meter,EnergyTransfer:Zone:KITCHEN_FLR_6 ZN,hourly; !- [J]
Output:Meter:Cumulative,EnergyTransfer:Zone:KITCHEN_FLR_6 ZN,hourly; !- [J]
Output:Meter,Heating:EnergyTransfer:Zone:KITCHEN_FLR_6 ZN,hourly; !- [J]
Output:Meter:Cumulative,Heating:EnergyTransfer:Zone:KITCHEN_FLR_6 ZN,hourly; !- [J]
Output:Meter,Cooling:EnergyTransfer:Zone:KITCHEN_FLR_6 ZN,hourly; !- [J]
Output:Meter:Cumulative,Cooling:EnergyTransfer:Zone:KITCHEN_FLR_6 ZN,hourly; !- [J]
Output:Meter,EnergyTransfer:Zone:LAUNDRY_FLR_1 ZN,hourly; !- [J]
Output:Meter:Cumulative,EnergyTransfer:Zone:LAUNDRY_FLR_1 ZN,hourly; !- [J]
Output:Meter,Heating:EnergyTransfer:Zone:LAUNDRY_FLR_1 ZN,hourly; !- [J]
Output:Meter:Cumulative,Heating:EnergyTransfer:Zone:LAUNDRY_FLR_1 ZN,hourly; !- [J]
Output:Meter,Cooling:EnergyTransfer:Zone:LAUNDRY_FLR_1 ZN,hourly; !- [J]
Output:Meter:Cumulative,Cooling:EnergyTransfer:Zone:LAUNDRY_FLR_1 ZN,hourly; !- [J]
Output:Meter,EnergyTransfer:Zone:LOBBY_FLR_1 ZN,hourly; !- [J]
Output:Meter:Cumulative,EnergyTransfer:Zone:LOBBY_FLR_1 ZN,hourly; !- [J]
Output:Meter,Heating:EnergyTransfer:Zone:LOBBY_FLR_1 ZN,hourly; !- [J]
Output:Meter:Cumulative,Heating:EnergyTransfer:Zone:LOBBY_FLR_1 ZN,hourly; !- [J]
Output:Meter,Cooling:EnergyTransfer:Zone:LOBBY_FLR_1 ZN,hourly; !- [J]
Output:Meter:Cumulative,Cooling:EnergyTransfer:Zone:LOBBY_FLR_1 ZN,hourly; !- [J]
Output:Meter,EnergyTransfer:Zone:MECH_FLR_1 ZN,hourly; !- [J]
Output:Meter:Cumulative,EnergyTransfer:Zone:MECH_FLR_1 ZN,hourly; !- [J]
Output:Meter,Heating:EnergyTransfer:Zone:MECH_FLR_1 ZN,hourly; !- [J]
Output:Meter:Cumulative,Heating:EnergyTransfer:Zone:MECH_FLR_1 ZN,hourly; !- [J]
Output:Meter,Cooling:EnergyTransfer:Zone:MECH_FLR_1 ZN,hourly; !- [J]
Output:Meter:Cumulative,Cooling:EnergyTransfer:Zone:MECH_FLR_1 ZN,hourly; !- [J]
Output:Meter,EnergyTransfer:Zone:RETAIL_1_FLR_1 ZN,hourly; !- [J]
Output:Meter:Cumulative,EnergyTransfer:Zone:RETAIL_1_FLR_1 ZN,hourly; !- [J]
Output:Meter,Heating:EnergyTransfer:Zone:RETAIL_1_FLR_1 ZN,hourly; !- [J]
Output:Meter:Cumulative,Heating:EnergyTransfer:Zone:RETAIL_1_FLR_1 ZN,hourly; !- [J]
Output:Meter,Cooling:EnergyTransfer:Zone:RETAIL_1_FLR_1 ZN,hourly; !- [J]
Output:Meter:Cumulative,Cooling:EnergyTransfer:Zone:RETAIL_1_FLR_1 ZN,hourly; !- [J]
Output:Meter,EnergyTransfer:Zone:RETAIL_2_FLR_1 ZN,hourly; !- [J]
Output:Meter:Cumulative,EnergyTransfer:Zone:RETAIL_2_FLR_1 ZN,hourly; !- [J]
Output:Meter,Heating:EnergyTransfer:Zone:RETAIL_2_FLR_1 ZN,hourly; !- [J]
Output:Meter:Cumulative,Heating:EnergyTransfer:Zone:RETAIL_2_FLR_1 ZN,hourly; !- [J]
Output:Meter,Cooling:EnergyTransfer:Zone:RETAIL_2_FLR_1 ZN,hourly; !- [J]
Output:Meter:Cumulative,Cooling:EnergyTransfer:Zone:RETAIL_2_FLR_1 ZN,hourly; !- [J]
Output:Meter,EnergyTransfer:Zone:ROOM_1_FLR_3 ZN,hourly; !- [J]
Output:Meter:Cumulative,EnergyTransfer:Zone:ROOM_1_FLR_3 ZN,hourly; !- [J]
Output:Meter,Heating:EnergyTransfer:Zone:ROOM_1_FLR_3 ZN,hourly; !- [J]
Output:Meter:Cumulative,Heating:EnergyTransfer:Zone:ROOM_1_FLR_3 ZN,hourly; !- [J]
Output:Meter,Cooling:EnergyTransfer:Zone:ROOM_1_FLR_3 ZN,hourly; !- [J]
Output:Meter:Cumulative,Cooling:EnergyTransfer:Zone:ROOM_1_FLR_3 ZN,hourly; !- [J]
Output:Meter,EnergyTransfer:Zone:ROOM_1_FLR_6 ZN,hourly; !- [J]
Output:Meter:Cumulative,EnergyTransfer:Zone:ROOM_1_FLR_6 ZN,hourly; !- [J]
Output:Meter,Heating:EnergyTransfer:Zone:ROOM_1_FLR_6 ZN,hourly; !- [J]
Output:Meter:Cumulative,Heating:EnergyTransfer:Zone:ROOM_1_FLR_6 ZN,hourly; !- [J]
Output:Meter,Cooling:EnergyTransfer:Zone:ROOM_1_FLR_6 ZN,hourly; !- [J]
Output:Meter:Cumulative,Cooling:EnergyTransfer:Zone:ROOM_1_FLR_6 ZN,hourly; !- [J]
Output:Meter,EnergyTransfer:Zone:ROOM_2_FLR_3 ZN,hourly; !- [J]
Output:Meter:Cumulative,EnergyTransfer:Zone:ROOM_2_FLR_3 ZN,hourly; !- [J]
Output:Meter,Heating:EnergyTransfer:Zone:ROOM_2_FLR_3 ZN,hourly; !- [J]
Output:Meter:Cumulative,Heating:EnergyTransfer:Zone:ROOM_2_FLR_3 ZN,hourly; !- [J]
Output:Meter,Cooling:EnergyTransfer:Zone:ROOM_2_FLR_3 ZN,hourly; !- [J]
Output:Meter:Cumulative,Cooling:EnergyTransfer:Zone:ROOM_2_FLR_3 ZN,hourly; !- [J]
Output:Meter,EnergyTransfer:Zone:ROOM_2_FLR_6 ZN,hourly; !- [J]
Output:Meter:Cumulative,EnergyTransfer:Zone:ROOM_2_FLR_6 ZN,hourly; !- [J]
Output:Meter,Heating:EnergyTransfer:Zone:ROOM_2_FLR_6 ZN,hourly; !- [J]
Output:Meter:Cumulative,Heating:EnergyTransfer:Zone:ROOM_2_FLR_6 ZN,hourly; !- [J]
Output:Meter,Cooling:EnergyTransfer:Zone:ROOM_2_FLR_6 ZN,hourly; !- [J]
Output:Meter:Cumulative,Cooling:EnergyTransfer:Zone:ROOM_2_FLR_6 ZN,hourly; !- [J]
Output:Meter,EnergyTransfer:Zone:ROOM_3_MULT19_FLR_3 ZN,hourly; !- [J]
Output:Meter:Cumulative,EnergyTransfer:Zone:ROOM_3_MULT19_FLR_3 ZN,hourly; !- [J]
Output:Meter,Heating:EnergyTransfer:Zone:ROOM_3_MULT19_FLR_3 ZN,hourly; !- [J]
Output:Meter:Cumulative,Heating:EnergyTransfer:Zone:ROOM_3_MULT19_FLR_3 ZN,hourly; !- [J]
Output:Meter,Cooling:EnergyTransfer:Zone:ROOM_3_MULT19_FLR_3 ZN,hourly; !- [J]
Output:Meter:Cumulative,Cooling:EnergyTransfer:Zone:ROOM_3_MULT19_FLR_3 ZN,hourly; !- [J]
Output:Meter,EnergyTransfer:Zone:ROOM_3_MULT9_FLR_6 ZN,hourly; !- [J]
Output:Meter:Cumulative,EnergyTransfer:Zone:ROOM_3_MULT9_FLR_6 ZN,hourly; !- [J]
Output:Meter,Heating:EnergyTransfer:Zone:ROOM_3_MULT9_FLR_6 ZN,hourly; !- [J]
Output:Meter:Cumulative,Heating:EnergyTransfer:Zone:ROOM_3_MULT9_FLR_6 ZN,hourly; !- [J]
Output:Meter,Cooling:EnergyTransfer:Zone:ROOM_3_MULT9_FLR_6 ZN,hourly; !- [J]
Output:Meter:Cumulative,Cooling:EnergyTransfer:Zone:ROOM_3_MULT9_FLR_6 ZN,hourly; !- [J]
Output:Meter,EnergyTransfer:Zone:ROOM_4_MULT19_FLR_3 ZN,hourly; !- [J]
Output:Meter:Cumulative,EnergyTransfer:Zone:ROOM_4_MULT19_FLR_3 ZN,hourly; !- [J]
Output:Meter,Heating:EnergyTransfer:Zone:ROOM_4_MULT19_FLR_3 ZN,hourly; !- [J]
Output:Meter:Cumulative,Heating:EnergyTransfer:Zone:ROOM_4_MULT19_FLR_3 ZN,hourly; !- [J]
Output:Meter,Cooling:EnergyTransfer:Zone:ROOM_4_MULT19_FLR_3 ZN,hourly; !- [J]
Output:Meter:Cumulative,Cooling:EnergyTransfer:Zone:ROOM_4_MULT19_FLR_3 ZN,hourly; !- [J]
Output:Meter,EnergyTransfer:Zone:ROOM_5_FLR_3 ZN,hourly; !- [J]
Output:Meter:Cumulative,EnergyTransfer:Zone:ROOM_5_FLR_3 ZN,hourly; !- [J]
Output:Meter,Heating:EnergyTransfer:Zone:ROOM_5_FLR_3 ZN,hourly; !- [J]
Output:Meter:Cumulative,Heating:EnergyTransfer:Zone:ROOM_5_FLR_3 ZN,hourly; !- [J]
Output:Meter,Cooling:EnergyTransfer:Zone:ROOM_5_FLR_3 ZN,hourly; !- [J]
Output:Meter:Cumulative,Cooling:EnergyTransfer:Zone:ROOM_5_FLR_3 ZN,hourly; !- [J]
Output:Meter,EnergyTransfer:Zone:ROOM_6_FLR_3 ZN,hourly; !- [J]
Output:Meter:Cumulative,EnergyTransfer:Zone:ROOM_6_FLR_3 ZN,hourly; !- [J]
Output:Meter,Heating:EnergyTransfer:Zone:ROOM_6_FLR_3 ZN,hourly; !- [J]
Output:Meter:Cumulative,Heating:EnergyTransfer:Zone:ROOM_6_FLR_3 ZN,hourly; !- [J]
Output:Meter,Cooling:EnergyTransfer:Zone:ROOM_6_FLR_3 ZN,hourly; !- [J]
Output:Meter:Cumulative,Cooling:EnergyTransfer:Zone:ROOM_6_FLR_3 ZN,hourly; !- [J]
Output:Meter,EnergyTransfer:Zone:STORAGE_FLR_1 ZN,hourly; !- [J]
Output:Meter:Cumulative,EnergyTransfer:Zone:STORAGE_FLR_1 ZN,hourly; !- [J]
Output:Meter,Heating:EnergyTransfer:Zone:STORAGE_FLR_1 ZN,hourly; !- [J]
Output:Meter:Cumulative,Heating:EnergyTransfer:Zone:STORAGE_FLR_1 ZN,hourly; !- [J]
Output:Meter,Cooling:EnergyTransfer:Zone:STORAGE_FLR_1 ZN,hourly; !- [J]
Output:Meter:Cumulative,Cooling:EnergyTransfer:Zone:STORAGE_FLR_1 ZN,hourly; !- [J]
Output:Meter,ElectricityPurchased:Facility,hourly; !- [J]
Output:Meter:Cumulative,ElectricityPurchased:Facility,hourly; !- [J]
Output:Meter,ElectricityPurchased:Plant,hourly; !- [J]
Output:Meter:Cumulative,ElectricityPurchased:Plant,hourly; !- [J]
Output:Meter,Cogeneration:ElectricityPurchased,hourly; !- [J]
Output:Meter:Cumulative,Cogeneration:ElectricityPurchased,hourly; !- [J]
Output:Meter,ElectricitySurplusSold:Facility,hourly; !- [J]
Output:Meter:Cumulative,ElectricitySurplusSold:Facility,hourly; !- [J]
Output:Meter,ElectricitySurplusSold:Plant,hourly; !- [J]
Output:Meter:Cumulative,ElectricitySurplusSold:Plant,hourly; !- [J]
Output:Meter,Cogeneration:ElectricitySurplusSold,hourly; !- [J]
Output:Meter:Cumulative,Cogeneration:ElectricitySurplusSold,hourly; !- [J]
Output:Meter,ElectricityNet:Facility,hourly; !- [J]
Output:Meter:Cumulative,ElectricityNet:Facility,hourly; !- [J]
Output:Meter,ElectricityNet:Plant,hourly; !- [J]
Output:Meter:Cumulative,ElectricityNet:Plant,hourly; !- [J]
Output:Meter,Cogeneration:ElectricityNet,hourly; !- [J]
Output:Meter:Cumulative,Cogeneration:ElectricityNet,hourly; !- [J]
Output:Meter,DistrictHeating:Facility,hourly; !- [J]
Output:Meter:Cumulative,DistrictHeating:Facility,hourly; !- [J]
Output:Meter,DistrictHeating:HVAC,hourly; !- [J]
Output:Meter:Cumulative,DistrictHeating:HVAC,hourly; !- [J]
Output:Meter,Heating:DistrictHeating,hourly; !- [J]
Output:Meter:Cumulative,Heating:DistrictHeating,hourly; !- [J]
Output:Meter,DistrictCooling:Facility,hourly; !- [J]
Output:Meter:Cumulative,DistrictCooling:Facility,hourly; !- [J]
Output:Meter,DistrictCooling:HVAC,hourly; !- [J]
Output:Meter:Cumulative,DistrictCooling:HVAC,hourly; !- [J]
Output:Meter,Cooling:DistrictCooling,hourly; !- [J]
Output:Meter:Cumulative,Cooling:DistrictCooling,hourly; !- [J]
Output:Meter,Carbon Equivalent:Facility,hourly; !- [kg]
Output:Meter:Cumulative,Carbon Equivalent:Facility,hourly; !- [kg]
Output:Meter,CarbonEquivalentEmissions:Carbon Equivalent,hourly; !- [kg]
Output:Meter:Cumulative,CarbonEquivalentEmissions:Carbon Equivalent,hourly; !- [kg]
