Program Version,EnergyPlus, Version 8.9.0-eba93e8e1b, YMD=2018.09.18 16:56
! This file shows details about the branches, nodes, and other
! elements of the flow connections.
! This file is intended for use in "debugging" potential problems
! that may also be detected by the program, but may be more easily
! identified by "eye".
! This file is also intended to support software which draws a
! schematic diagram of the HVAC system.
! ===============================================================
! #Nodes,<Number of Unique Nodes>
 #Nodes,276
! <Node>,<NodeNumber>,<Node Name>,<Node Fluid Type>,<# Times Node Referenced After Definition>
 Node,1,NODE 3,Air,2
 Node,2,NODE 2,Air,2
 Node,3,NODE 6,Air,2
 Node,4,NODE 5,Air,2
 Node,5,NODE 9,Air,2
 Node,6,NODE 8,Air,2
 Node,7,NODE 12,Air,2
 Node,8,NODE 11,Air,2
 Node,9,NODE 15,Air,2
 Node,10,NODE 14,Air,2
 Node,11,NODE 18,Air,2
 Node,12,NODE 17,Air,2
 Node,13,NODE 21,Air,2
 Node,14,NODE 20,Air,2
 Node,15,NODE 24,Air,2
 Node,16,NODE 23,Air,2
 Node,17,NODE 27,Air,2
 Node,18,NODE 26,Air,2
 Node,19,NODE 30,Air,2
 Node,20,NODE 29,Air,2
 Node,21,NODE 33,Air,2
 Node,22,NODE 32,Air,2
 Node,23,NODE 36,Air,2
 Node,24,NODE 35,Air,2
 Node,25,NODE 39,Air,2
 Node,26,NODE 38,Air,2
 Node,27,NODE 42,Air,2
 Node,28,NODE 41,Air,2
 Node,29,NODE 45,Air,2
 Node,30,NODE 44,Air,2
 Node,31,NODE 48,Air,2
 Node,32,NODE 47,Air,2
 Node,33,NODE 51,Air,2
 Node,34,NODE 50,Air,2
 Node,35,NODE 54,Air,2
 Node,36,NODE 53,Air,2
 Node,37,NODE 57,Air,2
 Node,38,NODE 56,Air,2
 Node,39,NODE 60,Air,2
 Node,40,NODE 59,Air,2
 Node,41,NODE 63,Air,2
 Node,42,NODE 62,Air,2
 Node,43,NODE 66,Air,2
 Node,44,NODE 65,Air,2
 Node,45,NODE 69,Air,2
 Node,46,NODE 68,Air,2
 Node,47,NODE 72,Air,2
 Node,48,NODE 71,Air,2
 Node,49,NODE 75,Air,2
 Node,50,NODE 74,Air,2
 Node,51,NODE 78,Air,2
 Node,52,NODE 77,Air,2
 Node,53,NODE 81,Air,2
 Node,54,NODE 80,Air,2
 Node,55,NODE 84,Air,2
 Node,56,NODE 83,Air,2
 Node,57,NODE 87,Air,2
 Node,58,NODE 86,Air,2
 Node,59,NODE 90,Air,2
 Node,60,NODE 89,Air,2
 Node,61,NODE 93,Air,2
 Node,62,NODE 92,Air,2
 Node,63,NODE 96,Air,2
 Node,64,NODE 95,Air,2
 Node,65,NODE 99,Air,2
 Node,66,NODE 98,Air,2
 Node,67,NODE 102,Air,2
 Node,68,NODE 101,Air,2
 Node,69,NODE 105,Air,2
 Node,70,NODE 104,Air,2
 Node,71,NODE 108,Air,2
 Node,72,NODE 107,Air,2
 Node,73,NODE 111,Air,2
 Node,74,NODE 110,Air,2
 Node,75,NODE 114,Air,2
 Node,76,NODE 113,Air,2
 Node,77,NODE 117,Air,2
 Node,78,NODE 116,Air,2
 Node,79,NODE 120,Air,2
 Node,80,NODE 119,Air,2
 Node,81,NODE 123,Air,2
 Node,82,NODE 122,Air,2
 Node,83,NODE 126,Air,2
 Node,84,NODE 125,Air,2
 Node,85,NODE 129,Air,2
 Node,86,NODE 128,Air,2
 Node,87,NODE 132,Air,2
 Node,88,NODE 131,Air,2
 Node,89,NODE 135,Air,2
 Node,90,NODE 134,Air,2
 Node,91,NODE 138,Air,2
 Node,92,NODE 137,Air,2
 Node,93,NODE 141,Air,2
 Node,94,NODE 140,Air,2
 Node,95,NODE 144,Air,2
 Node,96,NODE 143,Air,2
 Node,97,NODE 147,Air,2
 Node,98,NODE 146,Air,2
 Node,99,NODE 150,Air,2
 Node,100,NODE 149,Air,2
 Node,101,NODE 153,Air,2
 Node,102,NODE 152,Air,2
 Node,103,NODE 156,Air,2
 Node,104,NODE 155,Air,2
 Node,105,NODE 159,Air,2
 Node,106,NODE 158,Air,2
 Node,107,NODE 162,Air,2
 Node,108,NODE 161,Air,2
 Node,109,NODE 165,Air,2
 Node,110,NODE 164,Air,2
 Node,111,NODE 1,Air,0
 Node,112,BASEMENT ZN RETURN AIR NODE,Air,0
 Node,113,NODE 4,Air,0
 Node,114,CORRIDOR_FLR_1 ZN RETURN AIR NODE,Air,0
 Node,115,NODE 7,Air,0
 Node,116,CORRIDOR_FLR_2 ZN RETURN AIR NODE,Air,0
 Node,117,NODE 10,Air,0
 Node,118,CORRIDOR_FLR_5 ZN RETURN AIR NODE,Air,0
 Node,119,NODE 13,Air,0
 Node,120,CORRIDOR_NW_FLR_3 ZN RETURN AIR NODE,Air,0
 Node,121,NODE 16,Air,0
 Node,122,CORRIDOR_NW_FLR_4 ZN RETURN AIR NODE,Air,0
 Node,123,NODE 19,Air,0
 Node,124,CORRIDOR_SE_FLR_3 ZN RETURN AIR NODE,Air,0
 Node,125,NODE 22,Air,0
 Node,126,CORRIDOR_SE_FLR_4 ZN RETURN AIR NODE,Air,0
 Node,127,NODE 25,Air,0
 Node,128,DINING_FLR_5 ZN RETURN AIR NODE,Air,0
 Node,129,NODE 28,Air,0
 Node,130,ER_EXAM1_MULT4_FLR_1 ZN RETURN AIR NODE,Air,0
 Node,131,NODE 31,Air,0
 Node,132,ER_EXAM3_MULT4_FLR_1 ZN RETURN AIR NODE,Air,0
 Node,133,NODE 34,Air,0
 Node,134,ER_NURSESTN_LOBBY_FLR_1 ZN RETURN AIR NODE,Air,0
 Node,135,NODE 37,Air,0
 Node,136,ER_TRAUMA1_FLR_1 ZN RETURN AIR NODE,Air,0
 Node,137,NODE 40,Air,0
 Node,138,ER_TRAUMA2_FLR_1 ZN RETURN AIR NODE,Air,0
 Node,139,NODE 43,Air,0
 Node,140,ER_TRIAGE_MULT4_FLR_1 ZN RETURN AIR NODE,Air,0
 Node,141,NODE 46,Air,0
 Node,142,ICU_FLR_2 ZN RETURN AIR NODE,Air,0
 Node,143,NODE 49,Air,0
 Node,144,ICU_NURSESTN_LOBBY_FLR_2 ZN RETURN AIR NODE,Air,0
 Node,145,NODE 52,Air,0
 Node,146,IC_PATROOM1_MULT5_FLR_2 ZN RETURN AIR NODE,Air,0
 Node,147,NODE 55,Air,0
 Node,148,IC_PATROOM2_FLR_2 ZN RETURN AIR NODE,Air,0
 Node,149,NODE 58,Air,0
 Node,150,IC_PATROOM3_MULT6_FLR_2 ZN RETURN AIR NODE,Air,0
 Node,151,NODE 61,Air,0
 Node,152,KITCHEN_FLR_5 ZN RETURN AIR NODE,Air,0
 Node,153,NODE 64,Air,0
 Node,154,LAB_FLR_3 ZN RETURN AIR NODE,Air,0
 Node,155,NODE 67,Air,0
 Node,156,LAB_FLR_4 ZN RETURN AIR NODE,Air,0
 Node,157,NODE 70,Air,0
 Node,158,LOBBY_RECORDS_FLR_1 ZN RETURN AIR NODE,Air,0
 Node,159,NODE 73,Air,0
 Node,160,NURSESTN_LOBBY_FLR_3 ZN RETURN AIR NODE,Air,0
 Node,161,NODE 76,Air,0
 Node,162,NURSESTN_LOBBY_FLR_4 ZN RETURN AIR NODE,Air,0
 Node,163,NODE 79,Air,0
 Node,164,NURSESTN_LOBBY_FLR_5 ZN RETURN AIR NODE,Air,0
 Node,165,NODE 82,Air,0
 Node,166,OFFICE1_FLR_5 ZN RETURN AIR NODE,Air,0
 Node,167,NODE 85,Air,0
 Node,168,OFFICE1_MULT4_FLR_1 ZN RETURN AIR NODE,Air,0
 Node,169,NODE 88,Air,0
 Node,170,OFFICE2_MULT5_FLR_5 ZN RETURN AIR NODE,Air,0
 Node,171,NODE 91,Air,0
 Node,172,OFFICE3_FLR_5 ZN RETURN AIR NODE,Air,0
 Node,173,NODE 94,Air,0
 Node,174,OFFICE4_MULT6_FLR_5 ZN RETURN AIR NODE,Air,0
 Node,175,NODE 97,Air,0
 Node,176,OR1_FLR_2 ZN RETURN AIR NODE,Air,0
 Node,177,NODE 100,Air,0
 Node,178,OR2_MULT5_FLR_2 ZN RETURN AIR NODE,Air,0
 Node,179,NODE 103,Air,0
 Node,180,OR3_FLR_2 ZN RETURN AIR NODE,Air,0
 Node,181,NODE 106,Air,0
 Node,182,OR4_FLR_2 ZN RETURN AIR NODE,Air,0
 Node,183,NODE 109,Air,0
 Node,184,OR_NURSESTN_LOBBY_FLR_2 ZN RETURN AIR NODE,Air,0
 Node,185,NODE 112,Air,0
 Node,186,PATROOM1_MULT10_FLR_3 ZN RETURN AIR NODE,Air,0
 Node,187,NODE 115,Air,0
 Node,188,PATROOM1_MULT10_FLR_4 ZN RETURN AIR NODE,Air,0
 Node,189,NODE 118,Air,0
 Node,190,PATROOM2_FLR_3 ZN RETURN AIR NODE,Air,0
 Node,191,NODE 121,Air,0
 Node,192,PATROOM2_FLR_4 ZN RETURN AIR NODE,Air,0
 Node,193,NODE 124,Air,0
 Node,194,PATROOM3_MULT10_FLR_3 ZN RETURN AIR NODE,Air,0
 Node,195,NODE 127,Air,0
 Node,196,PATROOM3_MULT10_FLR_4 ZN RETURN AIR NODE,Air,0
 Node,197,NODE 130,Air,0
 Node,198,PATROOM4_FLR_3 ZN RETURN AIR NODE,Air,0
 Node,199,NODE 133,Air,0
 Node,200,PATROOM4_FLR_4 ZN RETURN AIR NODE,Air,0
 Node,201,NODE 136,Air,0
 Node,202,PATROOM5_MULT10_FLR_3 ZN RETURN AIR NODE,Air,0
 Node,203,NODE 139,Air,0
 Node,204,PATROOM5_MULT10_FLR_4 ZN RETURN AIR NODE,Air,0
 Node,205,NODE 142,Air,0
 Node,206,PATROOM6_FLR_3 ZN RETURN AIR NODE,Air,0
 Node,207,NODE 145,Air,0
 Node,208,PATROOM6_FLR_4 ZN RETURN AIR NODE,Air,0
 Node,209,NODE 148,Air,0
 Node,210,PATROOM7_MULT10_FLR_3 ZN RETURN AIR NODE,Air,0
 Node,211,NODE 151,Air,0
 Node,212,PATROOM7_MULT10_FLR_4 ZN RETURN AIR NODE,Air,0
 Node,213,NODE 154,Air,0
 Node,214,PATROOM8_FLR_3 ZN RETURN AIR NODE,Air,0
 Node,215,NODE 157,Air,0
 Node,216,PATROOM8_FLR_4 ZN RETURN AIR NODE,Air,0
 Node,217,NODE 160,Air,0
 Node,218,PHYSTHERAPY_FLR_3 ZN RETURN AIR NODE,Air,0
 Node,219,NODE 163,Air,0
 Node,220,RADIOLOGY_FLR_4 ZN RETURN AIR NODE,Air,0
 Node,221,MODEL OUTDOOR AIR NODE,Air,0
 Node,222,ZONE HVAC IDEAL LOADS AIR SYSTEM 1 OUTDOOR AIR INLET NODE,Air,1
 Node,223,ZONE HVAC IDEAL LOADS AIR SYSTEM 2 OUTDOOR AIR INLET NODE,Air,1
 Node,224,ZONE HVAC IDEAL LOADS AIR SYSTEM 3 OUTDOOR AIR INLET NODE,Air,1
 Node,225,ZONE HVAC IDEAL LOADS AIR SYSTEM 4 OUTDOOR AIR INLET NODE,Air,1
 Node,226,ZONE HVAC IDEAL LOADS AIR SYSTEM 5 OUTDOOR AIR INLET NODE,Air,1
 Node,227,ZONE HVAC IDEAL LOADS AIR SYSTEM 6 OUTDOOR AIR INLET NODE,Air,1
 Node,228,ZONE HVAC IDEAL LOADS AIR SYSTEM 7 OUTDOOR AIR INLET NODE,Air,1
 Node,229,ZONE HVAC IDEAL LOADS AIR SYSTEM 8 OUTDOOR AIR INLET NODE,Air,1
 Node,230,ZONE HVAC IDEAL LOADS AIR SYSTEM 9 OUTDOOR AIR INLET NODE,Air,1
 Node,231,ZONE HVAC IDEAL LOADS AIR SYSTEM 10 OUTDOOR AIR INLET NODE,Air,1
 Node,232,ZONE HVAC IDEAL LOADS AIR SYSTEM 11 OUTDOOR AIR INLET NODE,Air,1
 Node,233,ZONE HVAC IDEAL LOADS AIR SYSTEM 12 OUTDOOR AIR INLET NODE,Air,1
 Node,234,ZONE HVAC IDEAL LOADS AIR SYSTEM 13 OUTDOOR AIR INLET NODE,Air,1
 Node,235,ZONE HVAC IDEAL LOADS AIR SYSTEM 14 OUTDOOR AIR INLET NODE,Air,1
 Node,236,ZONE HVAC IDEAL LOADS AIR SYSTEM 15 OUTDOOR AIR INLET NODE,Air,1
 Node,237,ZONE HVAC IDEAL LOADS AIR SYSTEM 16 OUTDOOR AIR INLET NODE,Air,1
 Node,238,ZONE HVAC IDEAL LOADS AIR SYSTEM 17 OUTDOOR AIR INLET NODE,Air,1
 Node,239,ZONE HVAC IDEAL LOADS AIR SYSTEM 18 OUTDOOR AIR INLET NODE,Air,1
 Node,240,ZONE HVAC IDEAL LOADS AIR SYSTEM 19 OUTDOOR AIR INLET NODE,Air,1
 Node,241,ZONE HVAC IDEAL LOADS AIR SYSTEM 20 OUTDOOR AIR INLET NODE,Air,1
 Node,242,ZONE HVAC IDEAL LOADS AIR SYSTEM 21 OUTDOOR AIR INLET NODE,Air,1
 Node,243,ZONE HVAC IDEAL LOADS AIR SYSTEM 22 OUTDOOR AIR INLET NODE,Air,1
 Node,244,ZONE HVAC IDEAL LOADS AIR SYSTEM 23 OUTDOOR AIR INLET NODE,Air,1
 Node,245,ZONE HVAC IDEAL LOADS AIR SYSTEM 24 OUTDOOR AIR INLET NODE,Air,1
 Node,246,ZONE HVAC IDEAL LOADS AIR SYSTEM 25 OUTDOOR AIR INLET NODE,Air,1
 Node,247,ZONE HVAC IDEAL LOADS AIR SYSTEM 26 OUTDOOR AIR INLET NODE,Air,1
 Node,248,ZONE HVAC IDEAL LOADS AIR SYSTEM 27 OUTDOOR AIR INLET NODE,Air,1
 Node,249,ZONE HVAC IDEAL LOADS AIR SYSTEM 28 OUTDOOR AIR INLET NODE,Air,1
 Node,250,ZONE HVAC IDEAL LOADS AIR SYSTEM 29 OUTDOOR AIR INLET NODE,Air,1
 Node,251,ZONE HVAC IDEAL LOADS AIR SYSTEM 30 OUTDOOR AIR INLET NODE,Air,1
 Node,252,ZONE HVAC IDEAL LOADS AIR SYSTEM 31 OUTDOOR AIR INLET NODE,Air,1
 Node,253,ZONE HVAC IDEAL LOADS AIR SYSTEM 32 OUTDOOR AIR INLET NODE,Air,1
 Node,254,ZONE HVAC IDEAL LOADS AIR SYSTEM 33 OUTDOOR AIR INLET NODE,Air,1
 Node,255,ZONE HVAC IDEAL LOADS AIR SYSTEM 34 OUTDOOR AIR INLET NODE,Air,1
 Node,256,ZONE HVAC IDEAL LOADS AIR SYSTEM 35 OUTDOOR AIR INLET NODE,Air,1
 Node,257,ZONE HVAC IDEAL LOADS AIR SYSTEM 36 OUTDOOR AIR INLET NODE,Air,1
 Node,258,ZONE HVAC IDEAL LOADS AIR SYSTEM 37 OUTDOOR AIR INLET NODE,Air,1
 Node,259,ZONE HVAC IDEAL LOADS AIR SYSTEM 38 OUTDOOR AIR INLET NODE,Air,1
 Node,260,ZONE HVAC IDEAL LOADS AIR SYSTEM 39 OUTDOOR AIR INLET NODE,Air,1
 Node,261,ZONE HVAC IDEAL LOADS AIR SYSTEM 40 OUTDOOR AIR INLET NODE,Air,1
 Node,262,ZONE HVAC IDEAL LOADS AIR SYSTEM 41 OUTDOOR AIR INLET NODE,Air,1
 Node,263,ZONE HVAC IDEAL LOADS AIR SYSTEM 42 OUTDOOR AIR INLET NODE,Air,1
 Node,264,ZONE HVAC IDEAL LOADS AIR SYSTEM 43 OUTDOOR AIR INLET NODE,Air,1
 Node,265,ZONE HVAC IDEAL LOADS AIR SYSTEM 44 OUTDOOR AIR INLET NODE,Air,1
 Node,266,ZONE HVAC IDEAL LOADS AIR SYSTEM 45 OUTDOOR AIR INLET NODE,Air,1
 Node,267,ZONE HVAC IDEAL LOADS AIR SYSTEM 46 OUTDOOR AIR INLET NODE,Air,1
 Node,268,ZONE HVAC IDEAL LOADS AIR SYSTEM 47 OUTDOOR AIR INLET NODE,Air,1
 Node,269,ZONE HVAC IDEAL LOADS AIR SYSTEM 48 OUTDOOR AIR INLET NODE,Air,1
 Node,270,ZONE HVAC IDEAL LOADS AIR SYSTEM 49 OUTDOOR AIR INLET NODE,Air,1
 Node,271,ZONE HVAC IDEAL LOADS AIR SYSTEM 50 OUTDOOR AIR INLET NODE,Air,1
 Node,272,ZONE HVAC IDEAL LOADS AIR SYSTEM 51 OUTDOOR AIR INLET NODE,Air,1
 Node,273,ZONE HVAC IDEAL LOADS AIR SYSTEM 52 OUTDOOR AIR INLET NODE,Air,1
 Node,274,ZONE HVAC IDEAL LOADS AIR SYSTEM 53 OUTDOOR AIR INLET NODE,Air,1
 Node,275,ZONE HVAC IDEAL LOADS AIR SYSTEM 54 OUTDOOR AIR INLET NODE,Air,1
 Node,276,ZONE HVAC IDEAL LOADS AIR SYSTEM 55 OUTDOOR AIR INLET NODE,Air,1
! ===============================================================
! Suspicious nodes have 0 references.  It is normal for some nodes, however.
! Listing nodes with 0 references (culled from previous list):
! <Suspicious Node>,<NodeNumber>,<Node Name>,<Node Fluid Type>,<# Times Node Referenced After Definition>
 Suspicious Node,111,NODE 1,Air,0
 Suspicious Node,112,BASEMENT ZN RETURN AIR NODE,Air,0
 Suspicious Node,113,NODE 4,Air,0
 Suspicious Node,114,CORRIDOR_FLR_1 ZN RETURN AIR NODE,Air,0
 Suspicious Node,115,NODE 7,Air,0
 Suspicious Node,116,CORRIDOR_FLR_2 ZN RETURN AIR NODE,Air,0
 Suspicious Node,117,NODE 10,Air,0
 Suspicious Node,118,CORRIDOR_FLR_5 ZN RETURN AIR NODE,Air,0
 Suspicious Node,119,NODE 13,Air,0
 Suspicious Node,120,CORRIDOR_NW_FLR_3 ZN RETURN AIR NODE,Air,0
 Suspicious Node,121,NODE 16,Air,0
 Suspicious Node,122,CORRIDOR_NW_FLR_4 ZN RETURN AIR NODE,Air,0
 Suspicious Node,123,NODE 19,Air,0
 Suspicious Node,124,CORRIDOR_SE_FLR_3 ZN RETURN AIR NODE,Air,0
 Suspicious Node,125,NODE 22,Air,0
 Suspicious Node,126,CORRIDOR_SE_FLR_4 ZN RETURN AIR NODE,Air,0
 Suspicious Node,127,NODE 25,Air,0
 Suspicious Node,128,DINING_FLR_5 ZN RETURN AIR NODE,Air,0
 Suspicious Node,129,NODE 28,Air,0
 Suspicious Node,130,ER_EXAM1_MULT4_FLR_1 ZN RETURN AIR NODE,Air,0
 Suspicious Node,131,NODE 31,Air,0
 Suspicious Node,132,ER_EXAM3_MULT4_FLR_1 ZN RETURN AIR NODE,Air,0
 Suspicious Node,133,NODE 34,Air,0
 Suspicious Node,134,ER_NURSESTN_LOBBY_FLR_1 ZN RETURN AIR NODE,Air,0
 Suspicious Node,135,NODE 37,Air,0
 Suspicious Node,136,ER_TRAUMA1_FLR_1 ZN RETURN AIR NODE,Air,0
 Suspicious Node,137,NODE 40,Air,0
 Suspicious Node,138,ER_TRAUMA2_FLR_1 ZN RETURN AIR NODE,Air,0
 Suspicious Node,139,NODE 43,Air,0
 Suspicious Node,140,ER_TRIAGE_MULT4_FLR_1 ZN RETURN AIR NODE,Air,0
 Suspicious Node,141,NODE 46,Air,0
 Suspicious Node,142,ICU_FLR_2 ZN RETURN AIR NODE,Air,0
 Suspicious Node,143,NODE 49,Air,0
 Suspicious Node,144,ICU_NURSESTN_LOBBY_FLR_2 ZN RETURN AIR NODE,Air,0
 Suspicious Node,145,NODE 52,Air,0
 Suspicious Node,146,IC_PATROOM1_MULT5_FLR_2 ZN RETURN AIR NODE,Air,0
 Suspicious Node,147,NODE 55,Air,0
 Suspicious Node,148,IC_PATROOM2_FLR_2 ZN RETURN AIR NODE,Air,0
 Suspicious Node,149,NODE 58,Air,0
 Suspicious Node,150,IC_PATROOM3_MULT6_FLR_2 ZN RETURN AIR NODE,Air,0
 Suspicious Node,151,NODE 61,Air,0
 Suspicious Node,152,KITCHEN_FLR_5 ZN RETURN AIR NODE,Air,0
 Suspicious Node,153,NODE 64,Air,0
 Suspicious Node,154,LAB_FLR_3 ZN RETURN AIR NODE,Air,0
 Suspicious Node,155,NODE 67,Air,0
 Suspicious Node,156,LAB_FLR_4 ZN RETURN AIR NODE,Air,0
 Suspicious Node,157,NODE 70,Air,0
 Suspicious Node,158,LOBBY_RECORDS_FLR_1 ZN RETURN AIR NODE,Air,0
 Suspicious Node,159,NODE 73,Air,0
 Suspicious Node,160,NURSESTN_LOBBY_FLR_3 ZN RETURN AIR NODE,Air,0
 Suspicious Node,161,NODE 76,Air,0
 Suspicious Node,162,NURSESTN_LOBBY_FLR_4 ZN RETURN AIR NODE,Air,0
 Suspicious Node,163,NODE 79,Air,0
 Suspicious Node,164,NURSESTN_LOBBY_FLR_5 ZN RETURN AIR NODE,Air,0
 Suspicious Node,165,NODE 82,Air,0
 Suspicious Node,166,OFFICE1_FLR_5 ZN RETURN AIR NODE,Air,0
 Suspicious Node,167,NODE 85,Air,0
 Suspicious Node,168,OFFICE1_MULT4_FLR_1 ZN RETURN AIR NODE,Air,0
 Suspicious Node,169,NODE 88,Air,0
 Suspicious Node,170,OFFICE2_MULT5_FLR_5 ZN RETURN AIR NODE,Air,0
 Suspicious Node,171,NODE 91,Air,0
 Suspicious Node,172,OFFICE3_FLR_5 ZN RETURN AIR NODE,Air,0
 Suspicious Node,173,NODE 94,Air,0
 Suspicious Node,174,OFFICE4_MULT6_FLR_5 ZN RETURN AIR NODE,Air,0
 Suspicious Node,175,NODE 97,Air,0
 Suspicious Node,176,OR1_FLR_2 ZN RETURN AIR NODE,Air,0
 Suspicious Node,177,NODE 100,Air,0
 Suspicious Node,178,OR2_MULT5_FLR_2 ZN RETURN AIR NODE,Air,0
 Suspicious Node,179,NODE 103,Air,0
 Suspicious Node,180,OR3_FLR_2 ZN RETURN AIR NODE,Air,0
 Suspicious Node,181,NODE 106,Air,0
 Suspicious Node,182,OR4_FLR_2 ZN RETURN AIR NODE,Air,0
 Suspicious Node,183,NODE 109,Air,0
 Suspicious Node,184,OR_NURSESTN_LOBBY_FLR_2 ZN RETURN AIR NODE,Air,0
 Suspicious Node,185,NODE 112,Air,0
 Suspicious Node,186,PATROOM1_MULT10_FLR_3 ZN RETURN AIR NODE,Air,0
 Suspicious Node,187,NODE 115,Air,0
 Suspicious Node,188,PATROOM1_MULT10_FLR_4 ZN RETURN AIR NODE,Air,0
 Suspicious Node,189,NODE 118,Air,0
 Suspicious Node,190,PATROOM2_FLR_3 ZN RETURN AIR NODE,Air,0
 Suspicious Node,191,NODE 121,Air,0
 Suspicious Node,192,PATROOM2_FLR_4 ZN RETURN AIR NODE,Air,0
 Suspicious Node,193,NODE 124,Air,0
 Suspicious Node,194,PATROOM3_MULT10_FLR_3 ZN RETURN AIR NODE,Air,0
 Suspicious Node,195,NODE 127,Air,0
 Suspicious Node,196,PATROOM3_MULT10_FLR_4 ZN RETURN AIR NODE,Air,0
 Suspicious Node,197,NODE 130,Air,0
 Suspicious Node,198,PATROOM4_FLR_3 ZN RETURN AIR NODE,Air,0
 Suspicious Node,199,NODE 133,Air,0
 Suspicious Node,200,PATROOM4_FLR_4 ZN RETURN AIR NODE,Air,0
 Suspicious Node,201,NODE 136,Air,0
 Suspicious Node,202,PATROOM5_MULT10_FLR_3 ZN RETURN AIR NODE,Air,0
 Suspicious Node,203,NODE 139,Air,0
 Suspicious Node,204,PATROOM5_MULT10_FLR_4 ZN RETURN AIR NODE,Air,0
 Suspicious Node,205,NODE 142,Air,0
 Suspicious Node,206,PATROOM6_FLR_3 ZN RETURN AIR NODE,Air,0
 Suspicious Node,207,NODE 145,Air,0
 Suspicious Node,208,PATROOM6_FLR_4 ZN RETURN AIR NODE,Air,0
 Suspicious Node,209,NODE 148,Air,0
 Suspicious Node,210,PATROOM7_MULT10_FLR_3 ZN RETURN AIR NODE,Air,0
 Suspicious Node,211,NODE 151,Air,0
 Suspicious Node,212,PATROOM7_MULT10_FLR_4 ZN RETURN AIR NODE,Air,0
 Suspicious Node,213,NODE 154,Air,0
 Suspicious Node,214,PATROOM8_FLR_3 ZN RETURN AIR NODE,Air,0
 Suspicious Node,215,NODE 157,Air,0
 Suspicious Node,216,PATROOM8_FLR_4 ZN RETURN AIR NODE,Air,0
 Suspicious Node,217,NODE 160,Air,0
 Suspicious Node,218,PHYSTHERAPY_FLR_3 ZN RETURN AIR NODE,Air,0
 Suspicious Node,219,NODE 163,Air,0
 Suspicious Node,220,RADIOLOGY_FLR_4 ZN RETURN AIR NODE,Air,0
 Suspicious Node,221,MODEL OUTDOOR AIR NODE,Air,0
! ===============================================================
! <#Branch Lists>,<Number of Branch Lists>
 #Branch Lists,0
! <Branch List>,<Branch List Count>,<Branch List Name>,<Loop Name>,<Loop Type>,<Number of Branches>
! <Branch>,<Branch Count>,<Branch Name>,<Loop Name>,<Loop Type>,<Branch Inlet Node Name>,<Branch Outlet Node Name>
! ===============================================================
! <#Supply Air Paths>,<Number of Supply Air Paths>
 #Supply Air Paths,0
! <Supply Air Path>,<Supply Air Path Count>,<Supply Air Path Name>,<AirLoopHVAC Name>
! <#Components on Supply Air Path>,<Number of Components>
! <Supply Air Path Component>,<Component Count>,<Component Type>,<Component Name>,<AirLoopHVAC Name>
! <#Outlet Nodes on Supply Air Path Component>,<Number of Nodes>
! <Supply Air Path Component Nodes>,<Node Count>,<Component Type>,<Component Name>,<Inlet Node Name>,<Outlet Node Name>,<AirLoopHVAC Name>
! ===============================================================
! <#Return Air Paths>,<Number of Return Air Paths>
 #Return Air Paths,0
! <Return Air Path>,<Return Air Path Count>,<Return Air Path Name>,<AirLoopHVAC Name>
! <#Components on Return Air Path>,<Number of Components>
! <Return Air Path Component>,<Component Count>,<Component Type>,<Component Name>,<AirLoopHVAC Name>
! <#Inlet Nodes on Return Air Path Component>,<Number of Nodes>
! <Return Air Path Component Nodes>,<Node Count>,<Component Type>,<Component Name>,<Inlet Node Name>,<Outlet Node Name>,<AirLoopHVAC Name>
! ===============================================================
! #Outdoor Air Nodes,<Number of Outdoor Air Nodes>
 #Outdoor Air Nodes,56
! <Outdoor Air Node>,<NodeNumber>,<Node Name>
 Outdoor Air Node,221,MODEL OUTDOOR AIR NODE
 Outdoor Air Node,222,ZONE HVAC IDEAL LOADS AIR SYSTEM 1 OUTDOOR AIR INLET NODE
 Outdoor Air Node,223,ZONE HVAC IDEAL LOADS AIR SYSTEM 2 OUTDOOR AIR INLET NODE
 Outdoor Air Node,224,ZONE HVAC IDEAL LOADS AIR SYSTEM 3 OUTDOOR AIR INLET NODE
 Outdoor Air Node,225,ZONE HVAC IDEAL LOADS AIR SYSTEM 4 OUTDOOR AIR INLET NODE
 Outdoor Air Node,226,ZONE HVAC IDEAL LOADS AIR SYSTEM 5 OUTDOOR AIR INLET NODE
 Outdoor Air Node,227,ZONE HVAC IDEAL LOADS AIR SYSTEM 6 OUTDOOR AIR INLET NODE
 Outdoor Air Node,228,ZONE HVAC IDEAL LOADS AIR SYSTEM 7 OUTDOOR AIR INLET NODE
 Outdoor Air Node,229,ZONE HVAC IDEAL LOADS AIR SYSTEM 8 OUTDOOR AIR INLET NODE
 Outdoor Air Node,230,ZONE HVAC IDEAL LOADS AIR SYSTEM 9 OUTDOOR AIR INLET NODE
 Outdoor Air Node,231,ZONE HVAC IDEAL LOADS AIR SYSTEM 10 OUTDOOR AIR INLET NODE
 Outdoor Air Node,232,ZONE HVAC IDEAL LOADS AIR SYSTEM 11 OUTDOOR AIR INLET NODE
 Outdoor Air Node,233,ZONE HVAC IDEAL LOADS AIR SYSTEM 12 OUTDOOR AIR INLET NODE
 Outdoor Air Node,234,ZONE HVAC IDEAL LOADS AIR SYSTEM 13 OUTDOOR AIR INLET NODE
 Outdoor Air Node,235,ZONE HVAC IDEAL LOADS AIR SYSTEM 14 OUTDOOR AIR INLET NODE
 Outdoor Air Node,236,ZONE HVAC IDEAL LOADS AIR SYSTEM 15 OUTDOOR AIR INLET NODE
 Outdoor Air Node,237,ZONE HVAC IDEAL LOADS AIR SYSTEM 16 OUTDOOR AIR INLET NODE
 Outdoor Air Node,238,ZONE HVAC IDEAL LOADS AIR SYSTEM 17 OUTDOOR AIR INLET NODE
 Outdoor Air Node,239,ZONE HVAC IDEAL LOADS AIR SYSTEM 18 OUTDOOR AIR INLET NODE
 Outdoor Air Node,240,ZONE HVAC IDEAL LOADS AIR SYSTEM 19 OUTDOOR AIR INLET NODE
 Outdoor Air Node,241,ZONE HVAC IDEAL LOADS AIR SYSTEM 20 OUTDOOR AIR INLET NODE
 Outdoor Air Node,242,ZONE HVAC IDEAL LOADS AIR SYSTEM 21 OUTDOOR AIR INLET NODE
 Outdoor Air Node,243,ZONE HVAC IDEAL LOADS AIR SYSTEM 22 OUTDOOR AIR INLET NODE
 Outdoor Air Node,244,ZONE HVAC IDEAL LOADS AIR SYSTEM 23 OUTDOOR AIR INLET NODE
 Outdoor Air Node,245,ZONE HVAC IDEAL LOADS AIR SYSTEM 24 OUTDOOR AIR INLET NODE
 Outdoor Air Node,246,ZONE HVAC IDEAL LOADS AIR SYSTEM 25 OUTDOOR AIR INLET NODE
 Outdoor Air Node,247,ZONE HVAC IDEAL LOADS AIR SYSTEM 26 OUTDOOR AIR INLET NODE
 Outdoor Air Node,248,ZONE HVAC IDEAL LOADS AIR SYSTEM 27 OUTDOOR AIR INLET NODE
 Outdoor Air Node,249,ZONE HVAC IDEAL LOADS AIR SYSTEM 28 OUTDOOR AIR INLET NODE
 Outdoor Air Node,250,ZONE HVAC IDEAL LOADS AIR SYSTEM 29 OUTDOOR AIR INLET NODE
 Outdoor Air Node,251,ZONE HVAC IDEAL LOADS AIR SYSTEM 30 OUTDOOR AIR INLET NODE
 Outdoor Air Node,252,ZONE HVAC IDEAL LOADS AIR SYSTEM 31 OUTDOOR AIR INLET NODE
 Outdoor Air Node,253,ZONE HVAC IDEAL LOADS AIR SYSTEM 32 OUTDOOR AIR INLET NODE
 Outdoor Air Node,254,ZONE HVAC IDEAL LOADS AIR SYSTEM 33 OUTDOOR AIR INLET NODE
 Outdoor Air Node,255,ZONE HVAC IDEAL LOADS AIR SYSTEM 34 OUTDOOR AIR INLET NODE
 Outdoor Air Node,256,ZONE HVAC IDEAL LOADS AIR SYSTEM 35 OUTDOOR AIR INLET NODE
 Outdoor Air Node,257,ZONE HVAC IDEAL LOADS AIR SYSTEM 36 OUTDOOR AIR INLET NODE
 Outdoor Air Node,258,ZONE HVAC IDEAL LOADS AIR SYSTEM 37 OUTDOOR AIR INLET NODE
 Outdoor Air Node,259,ZONE HVAC IDEAL LOADS AIR SYSTEM 38 OUTDOOR AIR INLET NODE
 Outdoor Air Node,260,ZONE HVAC IDEAL LOADS AIR SYSTEM 39 OUTDOOR AIR INLET NODE
 Outdoor Air Node,261,ZONE HVAC IDEAL LOADS AIR SYSTEM 40 OUTDOOR AIR INLET NODE
 Outdoor Air Node,262,ZONE HVAC IDEAL LOADS AIR SYSTEM 41 OUTDOOR AIR INLET NODE
 Outdoor Air Node,263,ZONE HVAC IDEAL LOADS AIR SYSTEM 42 OUTDOOR AIR INLET NODE
 Outdoor Air Node,264,ZONE HVAC IDEAL LOADS AIR SYSTEM 43 OUTDOOR AIR INLET NODE
 Outdoor Air Node,265,ZONE HVAC IDEAL LOADS AIR SYSTEM 44 OUTDOOR AIR INLET NODE
 Outdoor Air Node,266,ZONE HVAC IDEAL LOADS AIR SYSTEM 45 OUTDOOR AIR INLET NODE
 Outdoor Air Node,267,ZONE HVAC IDEAL LOADS AIR SYSTEM 46 OUTDOOR AIR INLET NODE
 Outdoor Air Node,268,ZONE HVAC IDEAL LOADS AIR SYSTEM 47 OUTDOOR AIR INLET NODE
 Outdoor Air Node,269,ZONE HVAC IDEAL LOADS AIR SYSTEM 48 OUTDOOR AIR INLET NODE
 Outdoor Air Node,270,ZONE HVAC IDEAL LOADS AIR SYSTEM 49 OUTDOOR AIR INLET NODE
 Outdoor Air Node,271,ZONE HVAC IDEAL LOADS AIR SYSTEM 50 OUTDOOR AIR INLET NODE
 Outdoor Air Node,272,ZONE HVAC IDEAL LOADS AIR SYSTEM 51 OUTDOOR AIR INLET NODE
 Outdoor Air Node,273,ZONE HVAC IDEAL LOADS AIR SYSTEM 52 OUTDOOR AIR INLET NODE
 Outdoor Air Node,274,ZONE HVAC IDEAL LOADS AIR SYSTEM 53 OUTDOOR AIR INLET NODE
 Outdoor Air Node,275,ZONE HVAC IDEAL LOADS AIR SYSTEM 54 OUTDOOR AIR INLET NODE
 Outdoor Air Node,276,ZONE HVAC IDEAL LOADS AIR SYSTEM 55 OUTDOOR AIR INLET NODE
! ===============================================================
! <#Component Sets>,<Number of Component Sets>
 #Component Sets,0
! <Component Set>,<Component Set Count>,<Parent Object Type>,<Parent Object Name>,<Component Type>,<Component Name>,<Inlet Node ID>,<Outlet Node ID>,<Description>
! ===============================================================
! <# Plant Loops>,<Number of Plant Loops>
 #Plant Loops,0
! <Plant Loop>,<Plant Loop Name>,<Loop Type>,<Inlet Node Name>,<Outlet Node Name>,<Branch List>,<Connector List>
! <Plant Loop Connector>,<Connector Type>,<Connector Name>,<Loop Name>,<Loop Type>,<Number of Inlets/Outlets>
! <Plant Loop Connector Branches>,<Connector Node Count>,<Connector Type>,<Connector Name>,<Inlet Branch>,<Outlet Branch>,<Loop Name>,<Loop Type>
! <Plant Loop Connector Nodes>,<Connector Node Count>,<Connector Type>,<Connector Name>,<Inlet Node>,<Outlet Node>,<Loop Name>,<Loop Type>
! <Plant Loop Supply Connection>,<Plant Loop Name>,<Supply Side Outlet Node Name>,<Demand Side Inlet Node Name>
! <Plant Loop Return Connection>,<Plant Loop Name>,<Demand Side Outlet Node Name>,<Supply Side Inlet Node Name>
! ===============================================================
! <# Condenser Loops>,<Number of Condenser Loops>
 #Condenser Loops,0
! <Condenser Loop>,<Condenser Loop Name>,<Loop Type>,<Inlet Node Name>,<Outlet Node Name>,<Branch List>,<Connector List>
! <Condenser Loop Connector>,<Connector Type>,<Connector Name>,<Loop Name>,<Loop Type>,<Number of Inlets/Outlets>
! <Condenser Loop Connector Branches>,<Connector Node Count>,<Connector Type>,<Connector Name>,<Inlet Branch>,<Outlet Branch>,<Loop Name>,<Loop Type>
! <Condenser Loop Connector Nodes>,<Connector Node Count>,<Connector Type>,<Connector Name>,<Inlet Node>,<Outlet Node>,<Loop Name>,<Loop Type>
! <Condenser Loop Supply Connection>,<Condenser Loop Name>,<Supply Side Outlet Node Name>,<Demand Side Inlet Node Name>
! <Condenser Loop Return Connection>,<Condenser Loop Name>,<Demand Side Outlet Node Name>,<Supply Side Inlet Node Name>
! ===============================================================
! <# Controlled Zones>,<Number of Controlled Zones>
 #Controlled Zones,55
! <Controlled Zone>,<Controlled Zone Name>,<Equip List Name>,<Control List Name>,<Zone Node Name>,<# Inlet Nodes>,<# Exhaust Nodes>,<# Return Nodes>
! <Controlled Zone Inlet>,<Inlet Node Count>,<Controlled Zone Name>,<Supply Air Inlet Node Name>,<SD Sys:Cooling/Heating [DD:Cooling] Inlet Node Name>,<DD Sys:Heating Inlet Node Name>
! <Controlled Zone Exhaust>,<Exhaust Node Count>,<Controlled Zone Name>,<Exhaust Air Node Name>
 Controlled Zone,BASEMENT ZN,BASEMENT ZN EQUIPMENT LIST,,NODE 1,1,1,1
   Controlled Zone Inlet,1,BASEMENT ZN,NODE 3,Undefined,N/A
   Controlled Zone Exhaust,1,BASEMENT ZN,NODE 2
   Controlled Zone Return,1,BASEMENT ZN,BASEMENT ZN RETURN AIR NODE
 Controlled Zone,CORRIDOR_FLR_1 ZN,CORRIDOR_FLR_1 ZN EQUIPMENT LIST,,NODE 4,1,1,1
   Controlled Zone Inlet,1,CORRIDOR_FLR_1 ZN,NODE 6,Undefined,N/A
   Controlled Zone Exhaust,1,CORRIDOR_FLR_1 ZN,NODE 5
   Controlled Zone Return,1,CORRIDOR_FLR_1 ZN,CORRIDOR_FLR_1 ZN RETURN AIR NODE
 Controlled Zone,CORRIDOR_FLR_2 ZN,CORRIDOR_FLR_2 ZN EQUIPMENT LIST,,NODE 7,1,1,1
   Controlled Zone Inlet,1,CORRIDOR_FLR_2 ZN,NODE 9,Undefined,N/A
   Controlled Zone Exhaust,1,CORRIDOR_FLR_2 ZN,NODE 8
   Controlled Zone Return,1,CORRIDOR_FLR_2 ZN,CORRIDOR_FLR_2 ZN RETURN AIR NODE
 Controlled Zone,CORRIDOR_FLR_5 ZN,CORRIDOR_FLR_5 ZN EQUIPMENT LIST,,NODE 10,1,1,1
   Controlled Zone Inlet,1,CORRIDOR_FLR_5 ZN,NODE 12,Undefined,N/A
   Controlled Zone Exhaust,1,CORRIDOR_FLR_5 ZN,NODE 11
   Controlled Zone Return,1,CORRIDOR_FLR_5 ZN,CORRIDOR_FLR_5 ZN RETURN AIR NODE
 Controlled Zone,CORRIDOR_NW_FLR_3 ZN,CORRIDOR_NW_FLR_3 ZN EQUIPMENT LIST,,NODE 13,1,1,1
   Controlled Zone Inlet,1,CORRIDOR_NW_FLR_3 ZN,NODE 15,Undefined,N/A
   Controlled Zone Exhaust,1,CORRIDOR_NW_FLR_3 ZN,NODE 14
   Controlled Zone Return,1,CORRIDOR_NW_FLR_3 ZN,CORRIDOR_NW_FLR_3 ZN RETURN AIR NODE
 Controlled Zone,CORRIDOR_NW_FLR_4 ZN,CORRIDOR_NW_FLR_4 ZN EQUIPMENT LIST,,NODE 16,1,1,1
   Controlled Zone Inlet,1,CORRIDOR_NW_FLR_4 ZN,NODE 18,Undefined,N/A
   Controlled Zone Exhaust,1,CORRIDOR_NW_FLR_4 ZN,NODE 17
   Controlled Zone Return,1,CORRIDOR_NW_FLR_4 ZN,CORRIDOR_NW_FLR_4 ZN RETURN AIR NODE
 Controlled Zone,CORRIDOR_SE_FLR_3 ZN,CORRIDOR_SE_FLR_3 ZN EQUIPMENT LIST,,NODE 19,1,1,1
   Controlled Zone Inlet,1,CORRIDOR_SE_FLR_3 ZN,NODE 21,Undefined,N/A
   Controlled Zone Exhaust,1,CORRIDOR_SE_FLR_3 ZN,NODE 20
   Controlled Zone Return,1,CORRIDOR_SE_FLR_3 ZN,CORRIDOR_SE_FLR_3 ZN RETURN AIR NODE
 Controlled Zone,CORRIDOR_SE_FLR_4 ZN,CORRIDOR_SE_FLR_4 ZN EQUIPMENT LIST,,NODE 22,1,1,1
   Controlled Zone Inlet,1,CORRIDOR_SE_FLR_4 ZN,NODE 24,Undefined,N/A
   Controlled Zone Exhaust,1,CORRIDOR_SE_FLR_4 ZN,NODE 23
   Controlled Zone Return,1,CORRIDOR_SE_FLR_4 ZN,CORRIDOR_SE_FLR_4 ZN RETURN AIR NODE
 Controlled Zone,DINING_FLR_5 ZN,DINING_FLR_5 ZN EQUIPMENT LIST,,NODE 25,1,1,1
   Controlled Zone Inlet,1,DINING_FLR_5 ZN,NODE 27,Undefined,N/A
   Controlled Zone Exhaust,1,DINING_FLR_5 ZN,NODE 26
   Controlled Zone Return,1,DINING_FLR_5 ZN,DINING_FLR_5 ZN RETURN AIR NODE
 Controlled Zone,ER_EXAM1_MULT4_FLR_1 ZN,ER_EXAM1_MULT4_FLR_1 ZN EQUIPMENT LIST,,NODE 28,1,1,1
   Controlled Zone Inlet,1,ER_EXAM1_MULT4_FLR_1 ZN,NODE 30,Undefined,N/A
   Controlled Zone Exhaust,1,ER_EXAM1_MULT4_FLR_1 ZN,NODE 29
   Controlled Zone Return,1,ER_EXAM1_MULT4_FLR_1 ZN,ER_EXAM1_MULT4_FLR_1 ZN RETURN AIR NODE
 Controlled Zone,ER_EXAM3_MULT4_FLR_1 ZN,ER_EXAM3_MULT4_FLR_1 ZN EQUIPMENT LIST,,NODE 31,1,1,1
   Controlled Zone Inlet,1,ER_EXAM3_MULT4_FLR_1 ZN,NODE 33,Undefined,N/A
   Controlled Zone Exhaust,1,ER_EXAM3_MULT4_FLR_1 ZN,NODE 32
   Controlled Zone Return,1,ER_EXAM3_MULT4_FLR_1 ZN,ER_EXAM3_MULT4_FLR_1 ZN RETURN AIR NODE
 Controlled Zone,ER_NURSESTN_LOBBY_FLR_1 ZN,ER_NURSESTN_LOBBY_FLR_1 ZN EQUIPMENT LIST,,NODE 34,1,1,1
   Controlled Zone Inlet,1,ER_NURSESTN_LOBBY_FLR_1 ZN,NODE 36,Undefined,N/A
   Controlled Zone Exhaust,1,ER_NURSESTN_LOBBY_FLR_1 ZN,NODE 35
   Controlled Zone Return,1,ER_NURSESTN_LOBBY_FLR_1 ZN,ER_NURSESTN_LOBBY_FLR_1 ZN RETURN AIR NODE
 Controlled Zone,ER_TRAUMA1_FLR_1 ZN,ER_TRAUMA1_FLR_1 ZN EQUIPMENT LIST,,NODE 37,1,1,1
   Controlled Zone Inlet,1,ER_TRAUMA1_FLR_1 ZN,NODE 39,Undefined,N/A
   Controlled Zone Exhaust,1,ER_TRAUMA1_FLR_1 ZN,NODE 38
   Controlled Zone Return,1,ER_TRAUMA1_FLR_1 ZN,ER_TRAUMA1_FLR_1 ZN RETURN AIR NODE
 Controlled Zone,ER_TRAUMA2_FLR_1 ZN,ER_TRAUMA2_FLR_1 ZN EQUIPMENT LIST,,NODE 40,1,1,1
   Controlled Zone Inlet,1,ER_TRAUMA2_FLR_1 ZN,NODE 42,Undefined,N/A
   Controlled Zone Exhaust,1,ER_TRAUMA2_FLR_1 ZN,NODE 41
   Controlled Zone Return,1,ER_TRAUMA2_FLR_1 ZN,ER_TRAUMA2_FLR_1 ZN RETURN AIR NODE
 Controlled Zone,ER_TRIAGE_MULT4_FLR_1 ZN,ER_TRIAGE_MULT4_FLR_1 ZN EQUIPMENT LIST,,NODE 43,1,1,1
   Controlled Zone Inlet,1,ER_TRIAGE_MULT4_FLR_1 ZN,NODE 45,Undefined,N/A
   Controlled Zone Exhaust,1,ER_TRIAGE_MULT4_FLR_1 ZN,NODE 44
   Controlled Zone Return,1,ER_TRIAGE_MULT4_FLR_1 ZN,ER_TRIAGE_MULT4_FLR_1 ZN RETURN AIR NODE
 Controlled Zone,ICU_FLR_2 ZN,ICU_FLR_2 ZN EQUIPMENT LIST,,NODE 46,1,1,1
   Controlled Zone Inlet,1,ICU_FLR_2 ZN,NODE 48,Undefined,N/A
   Controlled Zone Exhaust,1,ICU_FLR_2 ZN,NODE 47
   Controlled Zone Return,1,ICU_FLR_2 ZN,ICU_FLR_2 ZN RETURN AIR NODE
 Controlled Zone,ICU_NURSESTN_LOBBY_FLR_2 ZN,ICU_NURSESTN_LOBBY_FLR_2 ZN EQUIPMENT LIST,,NODE 49,1,1,1
   Controlled Zone Inlet,1,ICU_NURSESTN_LOBBY_FLR_2 ZN,NODE 51,Undefined,N/A
   Controlled Zone Exhaust,1,ICU_NURSESTN_LOBBY_FLR_2 ZN,NODE 50
   Controlled Zone Return,1,ICU_NURSESTN_LOBBY_FLR_2 ZN,ICU_NURSESTN_LOBBY_FLR_2 ZN RETURN AIR NODE
 Controlled Zone,IC_PATROOM1_MULT5_FLR_2 ZN,IC_PATROOM1_MULT5_FLR_2 ZN EQUIPMENT LIST,,NODE 52,1,1,1
   Controlled Zone Inlet,1,IC_PATROOM1_MULT5_FLR_2 ZN,NODE 54,Undefined,N/A
   Controlled Zone Exhaust,1,IC_PATROOM1_MULT5_FLR_2 ZN,NODE 53
   Controlled Zone Return,1,IC_PATROOM1_MULT5_FLR_2 ZN,IC_PATROOM1_MULT5_FLR_2 ZN RETURN AIR NODE
 Controlled Zone,IC_PATROOM2_FLR_2 ZN,IC_PATROOM2_FLR_2 ZN EQUIPMENT LIST,,NODE 55,1,1,1
   Controlled Zone Inlet,1,IC_PATROOM2_FLR_2 ZN,NODE 57,Undefined,N/A
   Controlled Zone Exhaust,1,IC_PATROOM2_FLR_2 ZN,NODE 56
   Controlled Zone Return,1,IC_PATROOM2_FLR_2 ZN,IC_PATROOM2_FLR_2 ZN RETURN AIR NODE
 Controlled Zone,IC_PATROOM3_MULT6_FLR_2 ZN,IC_PATROOM3_MULT6_FLR_2 ZN EQUIPMENT LIST,,NODE 58,1,1,1
   Controlled Zone Inlet,1,IC_PATROOM3_MULT6_FLR_2 ZN,NODE 60,Undefined,N/A
   Controlled Zone Exhaust,1,IC_PATROOM3_MULT6_FLR_2 ZN,NODE 59
   Controlled Zone Return,1,IC_PATROOM3_MULT6_FLR_2 ZN,IC_PATROOM3_MULT6_FLR_2 ZN RETURN AIR NODE
 Controlled Zone,KITCHEN_FLR_5 ZN,KITCHEN_FLR_5 ZN EQUIPMENT LIST,,NODE 61,1,1,1
   Controlled Zone Inlet,1,KITCHEN_FLR_5 ZN,NODE 63,Undefined,N/A
   Controlled Zone Exhaust,1,KITCHEN_FLR_5 ZN,NODE 62
   Controlled Zone Return,1,KITCHEN_FLR_5 ZN,KITCHEN_FLR_5 ZN RETURN AIR NODE
 Controlled Zone,LAB_FLR_3 ZN,LAB_FLR_3 ZN EQUIPMENT LIST,,NODE 64,1,1,1
   Controlled Zone Inlet,1,LAB_FLR_3 ZN,NODE 66,Undefined,N/A
   Controlled Zone Exhaust,1,LAB_FLR_3 ZN,NODE 65
   Controlled Zone Return,1,LAB_FLR_3 ZN,LAB_FLR_3 ZN RETURN AIR NODE
 Controlled Zone,LAB_FLR_4 ZN,LAB_FLR_4 ZN EQUIPMENT LIST,,NODE 67,1,1,1
   Controlled Zone Inlet,1,LAB_FLR_4 ZN,NODE 69,Undefined,N/A
   Controlled Zone Exhaust,1,LAB_FLR_4 ZN,NODE 68
   Controlled Zone Return,1,LAB_FLR_4 ZN,LAB_FLR_4 ZN RETURN AIR NODE
 Controlled Zone,LOBBY_RECORDS_FLR_1 ZN,LOBBY_RECORDS_FLR_1 ZN EQUIPMENT LIST,,NODE 70,1,1,1
   Controlled Zone Inlet,1,LOBBY_RECORDS_FLR_1 ZN,NODE 72,Undefined,N/A
   Controlled Zone Exhaust,1,LOBBY_RECORDS_FLR_1 ZN,NODE 71
   Controlled Zone Return,1,LOBBY_RECORDS_FLR_1 ZN,LOBBY_RECORDS_FLR_1 ZN RETURN AIR NODE
 Controlled Zone,NURSESTN_LOBBY_FLR_3 ZN,NURSESTN_LOBBY_FLR_3 ZN EQUIPMENT LIST,,NODE 73,1,1,1
   Controlled Zone Inlet,1,NURSESTN_LOBBY_FLR_3 ZN,NODE 75,Undefined,N/A
   Controlled Zone Exhaust,1,NURSESTN_LOBBY_FLR_3 ZN,NODE 74
   Controlled Zone Return,1,NURSESTN_LOBBY_FLR_3 ZN,NURSESTN_LOBBY_FLR_3 ZN RETURN AIR NODE
 Controlled Zone,NURSESTN_LOBBY_FLR_4 ZN,NURSESTN_LOBBY_FLR_4 ZN EQUIPMENT LIST,,NODE 76,1,1,1
   Controlled Zone Inlet,1,NURSESTN_LOBBY_FLR_4 ZN,NODE 78,Undefined,N/A
   Controlled Zone Exhaust,1,NURSESTN_LOBBY_FLR_4 ZN,NODE 77
   Controlled Zone Return,1,NURSESTN_LOBBY_FLR_4 ZN,NURSESTN_LOBBY_FLR_4 ZN RETURN AIR NODE
 Controlled Zone,NURSESTN_LOBBY_FLR_5 ZN,NURSESTN_LOBBY_FLR_5 ZN EQUIPMENT LIST,,NODE 79,1,1,1
   Controlled Zone Inlet,1,NURSESTN_LOBBY_FLR_5 ZN,NODE 81,Undefined,N/A
   Controlled Zone Exhaust,1,NURSESTN_LOBBY_FLR_5 ZN,NODE 80
   Controlled Zone Return,1,NURSESTN_LOBBY_FLR_5 ZN,NURSESTN_LOBBY_FLR_5 ZN RETURN AIR NODE
 Controlled Zone,OFFICE1_FLR_5 ZN,OFFICE1_FLR_5 ZN EQUIPMENT LIST,,NODE 82,1,1,1
   Controlled Zone Inlet,1,OFFICE1_FLR_5 ZN,NODE 84,Undefined,N/A
   Controlled Zone Exhaust,1,OFFICE1_FLR_5 ZN,NODE 83
   Controlled Zone Return,1,OFFICE1_FLR_5 ZN,OFFICE1_FLR_5 ZN RETURN AIR NODE
 Controlled Zone,OFFICE1_MULT4_FLR_1 ZN,OFFICE1_MULT4_FLR_1 ZN EQUIPMENT LIST,,NODE 85,1,1,1
   Controlled Zone Inlet,1,OFFICE1_MULT4_FLR_1 ZN,NODE 87,Undefined,N/A
   Controlled Zone Exhaust,1,OFFICE1_MULT4_FLR_1 ZN,NODE 86
   Controlled Zone Return,1,OFFICE1_MULT4_FLR_1 ZN,OFFICE1_MULT4_FLR_1 ZN RETURN AIR NODE
 Controlled Zone,OFFICE2_MULT5_FLR_5 ZN,OFFICE2_MULT5_FLR_5 ZN EQUIPMENT LIST,,NODE 88,1,1,1
   Controlled Zone Inlet,1,OFFICE2_MULT5_FLR_5 ZN,NODE 90,Undefined,N/A
   Controlled Zone Exhaust,1,OFFICE2_MULT5_FLR_5 ZN,NODE 89
   Controlled Zone Return,1,OFFICE2_MULT5_FLR_5 ZN,OFFICE2_MULT5_FLR_5 ZN RETURN AIR NODE
 Controlled Zone,OFFICE3_FLR_5 ZN,OFFICE3_FLR_5 ZN EQUIPMENT LIST,,NODE 91,1,1,1
   Controlled Zone Inlet,1,OFFICE3_FLR_5 ZN,NODE 93,Undefined,N/A
   Controlled Zone Exhaust,1,OFFICE3_FLR_5 ZN,NODE 92
   Controlled Zone Return,1,OFFICE3_FLR_5 ZN,OFFICE3_FLR_5 ZN RETURN AIR NODE
 Controlled Zone,OFFICE4_MULT6_FLR_5 ZN,OFFICE4_MULT6_FLR_5 ZN EQUIPMENT LIST,,NODE 94,1,1,1
   Controlled Zone Inlet,1,OFFICE4_MULT6_FLR_5 ZN,NODE 96,Undefined,N/A
   Controlled Zone Exhaust,1,OFFICE4_MULT6_FLR_5 ZN,NODE 95
   Controlled Zone Return,1,OFFICE4_MULT6_FLR_5 ZN,OFFICE4_MULT6_FLR_5 ZN RETURN AIR NODE
 Controlled Zone,OR1_FLR_2 ZN,OR1_FLR_2 ZN EQUIPMENT LIST,,NODE 97,1,1,1
   Controlled Zone Inlet,1,OR1_FLR_2 ZN,NODE 99,Undefined,N/A
   Controlled Zone Exhaust,1,OR1_FLR_2 ZN,NODE 98
   Controlled Zone Return,1,OR1_FLR_2 ZN,OR1_FLR_2 ZN RETURN AIR NODE
 Controlled Zone,OR2_MULT5_FLR_2 ZN,OR2_MULT5_FLR_2 ZN EQUIPMENT LIST,,NODE 100,1,1,1
   Controlled Zone Inlet,1,OR2_MULT5_FLR_2 ZN,NODE 102,Undefined,N/A
   Controlled Zone Exhaust,1,OR2_MULT5_FLR_2 ZN,NODE 101
   Controlled Zone Return,1,OR2_MULT5_FLR_2 ZN,OR2_MULT5_FLR_2 ZN RETURN AIR NODE
 Controlled Zone,OR3_FLR_2 ZN,OR3_FLR_2 ZN EQUIPMENT LIST,,NODE 103,1,1,1
   Controlled Zone Inlet,1,OR3_FLR_2 ZN,NODE 105,Undefined,N/A
   Controlled Zone Exhaust,1,OR3_FLR_2 ZN,NODE 104
   Controlled Zone Return,1,OR3_FLR_2 ZN,OR3_FLR_2 ZN RETURN AIR NODE
 Controlled Zone,OR4_FLR_2 ZN,OR4_FLR_2 ZN EQUIPMENT LIST,,NODE 106,1,1,1
   Controlled Zone Inlet,1,OR4_FLR_2 ZN,NODE 108,Undefined,N/A
   Controlled Zone Exhaust,1,OR4_FLR_2 ZN,NODE 107
   Controlled Zone Return,1,OR4_FLR_2 ZN,OR4_FLR_2 ZN RETURN AIR NODE
 Controlled Zone,OR_NURSESTN_LOBBY_FLR_2 ZN,OR_NURSESTN_LOBBY_FLR_2 ZN EQUIPMENT LIST,,NODE 109,1,1,1
   Controlled Zone Inlet,1,OR_NURSESTN_LOBBY_FLR_2 ZN,NODE 111,Undefined,N/A
   Controlled Zone Exhaust,1,OR_NURSESTN_LOBBY_FLR_2 ZN,NODE 110
   Controlled Zone Return,1,OR_NURSESTN_LOBBY_FLR_2 ZN,OR_NURSESTN_LOBBY_FLR_2 ZN RETURN AIR NODE
 Controlled Zone,PATROOM1_MULT10_FLR_3 ZN,PATROOM1_MULT10_FLR_3 ZN EQUIPMENT LIST,,NODE 112,1,1,1
   Controlled Zone Inlet,1,PATROOM1_MULT10_FLR_3 ZN,NODE 114,Undefined,N/A
   Controlled Zone Exhaust,1,PATROOM1_MULT10_FLR_3 ZN,NODE 113
   Controlled Zone Return,1,PATROOM1_MULT10_FLR_3 ZN,PATROOM1_MULT10_FLR_3 ZN RETURN AIR NODE
 Controlled Zone,PATROOM1_MULT10_FLR_4 ZN,PATROOM1_MULT10_FLR_4 ZN EQUIPMENT LIST,,NODE 115,1,1,1
   Controlled Zone Inlet,1,PATROOM1_MULT10_FLR_4 ZN,NODE 117,Undefined,N/A
   Controlled Zone Exhaust,1,PATROOM1_MULT10_FLR_4 ZN,NODE 116
   Controlled Zone Return,1,PATROOM1_MULT10_FLR_4 ZN,PATROOM1_MULT10_FLR_4 ZN RETURN AIR NODE
 Controlled Zone,PATROOM2_FLR_3 ZN,PATROOM2_FLR_3 ZN EQUIPMENT LIST,,NODE 118,1,1,1
   Controlled Zone Inlet,1,PATROOM2_FLR_3 ZN,NODE 120,Undefined,N/A
   Controlled Zone Exhaust,1,PATROOM2_FLR_3 ZN,NODE 119
   Controlled Zone Return,1,PATROOM2_FLR_3 ZN,PATROOM2_FLR_3 ZN RETURN AIR NODE
 Controlled Zone,PATROOM2_FLR_4 ZN,PATROOM2_FLR_4 ZN EQUIPMENT LIST,,NODE 121,1,1,1
   Controlled Zone Inlet,1,PATROOM2_FLR_4 ZN,NODE 123,Undefined,N/A
   Controlled Zone Exhaust,1,PATROOM2_FLR_4 ZN,NODE 122
   Controlled Zone Return,1,PATROOM2_FLR_4 ZN,PATROOM2_FLR_4 ZN RETURN AIR NODE
 Controlled Zone,PATROOM3_MULT10_FLR_3 ZN,PATROOM3_MULT10_FLR_3 ZN EQUIPMENT LIST,,NODE 124,1,1,1
   Controlled Zone Inlet,1,PATROOM3_MULT10_FLR_3 ZN,NODE 126,Undefined,N/A
   Controlled Zone Exhaust,1,PATROOM3_MULT10_FLR_3 ZN,NODE 125
   Controlled Zone Return,1,PATROOM3_MULT10_FLR_3 ZN,PATROOM3_MULT10_FLR_3 ZN RETURN AIR NODE
 Controlled Zone,PATROOM3_MULT10_FLR_4 ZN,PATROOM3_MULT10_FLR_4 ZN EQUIPMENT LIST,,NODE 127,1,1,1
   Controlled Zone Inlet,1,PATROOM3_MULT10_FLR_4 ZN,NODE 129,Undefined,N/A
   Controlled Zone Exhaust,1,PATROOM3_MULT10_FLR_4 ZN,NODE 128
   Controlled Zone Return,1,PATROOM3_MULT10_FLR_4 ZN,PATROOM3_MULT10_FLR_4 ZN RETURN AIR NODE
 Controlled Zone,PATROOM4_FLR_3 ZN,PATROOM4_FLR_3 ZN EQUIPMENT LIST,,NODE 130,1,1,1
   Controlled Zone Inlet,1,PATROOM4_FLR_3 ZN,NODE 132,Undefined,N/A
   Controlled Zone Exhaust,1,PATROOM4_FLR_3 ZN,NODE 131
   Controlled Zone Return,1,PATROOM4_FLR_3 ZN,PATROOM4_FLR_3 ZN RETURN AIR NODE
 Controlled Zone,PATROOM4_FLR_4 ZN,PATROOM4_FLR_4 ZN EQUIPMENT LIST,,NODE 133,1,1,1
   Controlled Zone Inlet,1,PATROOM4_FLR_4 ZN,NODE 135,Undefined,N/A
   Controlled Zone Exhaust,1,PATROOM4_FLR_4 ZN,NODE 134
   Controlled Zone Return,1,PATROOM4_FLR_4 ZN,PATROOM4_FLR_4 ZN RETURN AIR NODE
 Controlled Zone,PATROOM5_MULT10_FLR_3 ZN,PATROOM5_MULT10_FLR_3 ZN EQUIPMENT LIST,,NODE 136,1,1,1
   Controlled Zone Inlet,1,PATROOM5_MULT10_FLR_3 ZN,NODE 138,Undefined,N/A
   Controlled Zone Exhaust,1,PATROOM5_MULT10_FLR_3 ZN,NODE 137
   Controlled Zone Return,1,PATROOM5_MULT10_FLR_3 ZN,PATROOM5_MULT10_FLR_3 ZN RETURN AIR NODE
 Controlled Zone,PATROOM5_MULT10_FLR_4 ZN,PATROOM5_MULT10_FLR_4 ZN EQUIPMENT LIST,,NODE 139,1,1,1
   Controlled Zone Inlet,1,PATROOM5_MULT10_FLR_4 ZN,NODE 141,Undefined,N/A
   Controlled Zone Exhaust,1,PATROOM5_MULT10_FLR_4 ZN,NODE 140
   Controlled Zone Return,1,PATROOM5_MULT10_FLR_4 ZN,PATROOM5_MULT10_FLR_4 ZN RETURN AIR NODE
 Controlled Zone,PATROOM6_FLR_3 ZN,PATROOM6_FLR_3 ZN EQUIPMENT LIST,,NODE 142,1,1,1
   Controlled Zone Inlet,1,PATROOM6_FLR_3 ZN,NODE 144,Undefined,N/A
   Controlled Zone Exhaust,1,PATROOM6_FLR_3 ZN,NODE 143
   Controlled Zone Return,1,PATROOM6_FLR_3 ZN,PATROOM6_FLR_3 ZN RETURN AIR NODE
 Controlled Zone,PATROOM6_FLR_4 ZN,PATROOM6_FLR_4 ZN EQUIPMENT LIST,,NODE 145,1,1,1
   Controlled Zone Inlet,1,PATROOM6_FLR_4 ZN,NODE 147,Undefined,N/A
   Controlled Zone Exhaust,1,PATROOM6_FLR_4 ZN,NODE 146
   Controlled Zone Return,1,PATROOM6_FLR_4 ZN,PATROOM6_FLR_4 ZN RETURN AIR NODE
 Controlled Zone,PATROOM7_MULT10_FLR_3 ZN,PATROOM7_MULT10_FLR_3 ZN EQUIPMENT LIST,,NODE 148,1,1,1
   Controlled Zone Inlet,1,PATROOM7_MULT10_FLR_3 ZN,NODE 150,Undefined,N/A
   Controlled Zone Exhaust,1,PATROOM7_MULT10_FLR_3 ZN,NODE 149
   Controlled Zone Return,1,PATROOM7_MULT10_FLR_3 ZN,PATROOM7_MULT10_FLR_3 ZN RETURN AIR NODE
 Controlled Zone,PATROOM7_MULT10_FLR_4 ZN,PATROOM7_MULT10_FLR_4 ZN EQUIPMENT LIST,,NODE 151,1,1,1
   Controlled Zone Inlet,1,PATROOM7_MULT10_FLR_4 ZN,NODE 153,Undefined,N/A
   Controlled Zone Exhaust,1,PATROOM7_MULT10_FLR_4 ZN,NODE 152
   Controlled Zone Return,1,PATROOM7_MULT10_FLR_4 ZN,PATROOM7_MULT10_FLR_4 ZN RETURN AIR NODE
 Controlled Zone,PATROOM8_FLR_3 ZN,PATROOM8_FLR_3 ZN EQUIPMENT LIST,,NODE 154,1,1,1
   Controlled Zone Inlet,1,PATROOM8_FLR_3 ZN,NODE 156,Undefined,N/A
   Controlled Zone Exhaust,1,PATROOM8_FLR_3 ZN,NODE 155
   Controlled Zone Return,1,PATROOM8_FLR_3 ZN,PATROOM8_FLR_3 ZN RETURN AIR NODE
 Controlled Zone,PATROOM8_FLR_4 ZN,PATROOM8_FLR_4 ZN EQUIPMENT LIST,,NODE 157,1,1,1
   Controlled Zone Inlet,1,PATROOM8_FLR_4 ZN,NODE 159,Undefined,N/A
   Controlled Zone Exhaust,1,PATROOM8_FLR_4 ZN,NODE 158
   Controlled Zone Return,1,PATROOM8_FLR_4 ZN,PATROOM8_FLR_4 ZN RETURN AIR NODE
 Controlled Zone,PHYSTHERAPY_FLR_3 ZN,PHYSTHERAPY_FLR_3 ZN EQUIPMENT LIST,,NODE 160,1,1,1
   Controlled Zone Inlet,1,PHYSTHERAPY_FLR_3 ZN,NODE 162,Undefined,N/A
   Controlled Zone Exhaust,1,PHYSTHERAPY_FLR_3 ZN,NODE 161
   Controlled Zone Return,1,PHYSTHERAPY_FLR_3 ZN,PHYSTHERAPY_FLR_3 ZN RETURN AIR NODE
 Controlled Zone,RADIOLOGY_FLR_4 ZN,RADIOLOGY_FLR_4 ZN EQUIPMENT LIST,,NODE 163,1,1,1
   Controlled Zone Inlet,1,RADIOLOGY_FLR_4 ZN,NODE 165,Undefined,N/A
   Controlled Zone Exhaust,1,RADIOLOGY_FLR_4 ZN,NODE 164
   Controlled Zone Return,1,RADIOLOGY_FLR_4 ZN,RADIOLOGY_FLR_4 ZN RETURN AIR NODE
! ===============================================================
! <#Zone Equipment Lists>,<Number of Zone Equipment Lists>
 #Zone Equipment Lists,55
! <Zone Equipment List>,<Zone Equipment List Count>,<Zone Equipment List Name>,<Zone Name>,<Number of Components>
! <Zone Equipment Component>,<Component Count>,<Component Type>,<Component Name>,<Zone Name>,<Heating Priority>,<Cooling Priority>
 Zone Equipment List,1,BASEMENT ZN EQUIPMENT LIST,BASEMENT ZN,1
   Zone Equipment Component,1,ZONEHVAC:IDEALLOADSAIRSYSTEM,ZONE HVAC IDEAL LOADS AIR SYSTEM 1,BASEMENT ZN,1,1
 Zone Equipment List,2,CORRIDOR_FLR_1 ZN EQUIPMENT LIST,CORRIDOR_FLR_1 ZN,1
   Zone Equipment Component,1,ZONEHVAC:IDEALLOADSAIRSYSTEM,ZONE HVAC IDEAL LOADS AIR SYSTEM 2,CORRIDOR_FLR_1 ZN,1,1
 Zone Equipment List,3,CORRIDOR_FLR_2 ZN EQUIPMENT LIST,CORRIDOR_FLR_2 ZN,1
   Zone Equipment Component,1,ZONEHVAC:IDEALLOADSAIRSYSTEM,ZONE HVAC IDEAL LOADS AIR SYSTEM 3,CORRIDOR_FLR_2 ZN,1,1
 Zone Equipment List,4,CORRIDOR_FLR_5 ZN EQUIPMENT LIST,CORRIDOR_FLR_5 ZN,1
   Zone Equipment Component,1,ZONEHVAC:IDEALLOADSAIRSYSTEM,ZONE HVAC IDEAL LOADS AIR SYSTEM 4,CORRIDOR_FLR_5 ZN,1,1
 Zone Equipment List,5,CORRIDOR_NW_FLR_3 ZN EQUIPMENT LIST,CORRIDOR_NW_FLR_3 ZN,1
   Zone Equipment Component,1,ZONEHVAC:IDEALLOADSAIRSYSTEM,ZONE HVAC IDEAL LOADS AIR SYSTEM 5,CORRIDOR_NW_FLR_3 ZN,1,1
 Zone Equipment List,6,CORRIDOR_NW_FLR_4 ZN EQUIPMENT LIST,CORRIDOR_NW_FLR_4 ZN,1
   Zone Equipment Component,1,ZONEHVAC:IDEALLOADSAIRSYSTEM,ZONE HVAC IDEAL LOADS AIR SYSTEM 6,CORRIDOR_NW_FLR_4 ZN,1,1
 Zone Equipment List,7,CORRIDOR_SE_FLR_3 ZN EQUIPMENT LIST,CORRIDOR_SE_FLR_3 ZN,1
   Zone Equipment Component,1,ZONEHVAC:IDEALLOADSAIRSYSTEM,ZONE HVAC IDEAL LOADS AIR SYSTEM 7,CORRIDOR_SE_FLR_3 ZN,1,1
 Zone Equipment List,8,CORRIDOR_SE_FLR_4 ZN EQUIPMENT LIST,CORRIDOR_SE_FLR_4 ZN,1
   Zone Equipment Component,1,ZONEHVAC:IDEALLOADSAIRSYSTEM,ZONE HVAC IDEAL LOADS AIR SYSTEM 8,CORRIDOR_SE_FLR_4 ZN,1,1
 Zone Equipment List,9,DINING_FLR_5 ZN EQUIPMENT LIST,DINING_FLR_5 ZN,1
   Zone Equipment Component,1,ZONEHVAC:IDEALLOADSAIRSYSTEM,ZONE HVAC IDEAL LOADS AIR SYSTEM 9,DINING_FLR_5 ZN,1,1
 Zone Equipment List,10,ER_EXAM1_MULT4_FLR_1 ZN EQUIPMENT LIST,ER_EXAM1_MULT4_FLR_1 ZN,1
   Zone Equipment Component,1,ZONEHVAC:IDEALLOADSAIRSYSTEM,ZONE HVAC IDEAL LOADS AIR SYSTEM 10,ER_EXAM1_MULT4_FLR_1 ZN,1,1
 Zone Equipment List,11,ER_EXAM3_MULT4_FLR_1 ZN EQUIPMENT LIST,ER_EXAM3_MULT4_FLR_1 ZN,1
   Zone Equipment Component,1,ZONEHVAC:IDEALLOADSAIRSYSTEM,ZONE HVAC IDEAL LOADS AIR SYSTEM 11,ER_EXAM3_MULT4_FLR_1 ZN,1,1
 Zone Equipment List,12,ER_NURSESTN_LOBBY_FLR_1 ZN EQUIPMENT LIST,ER_NURSESTN_LOBBY_FLR_1 ZN,1
   Zone Equipment Component,1,ZONEHVAC:IDEALLOADSAIRSYSTEM,ZONE HVAC IDEAL LOADS AIR SYSTEM 12,ER_NURSESTN_LOBBY_FLR_1 ZN,1,1
 Zone Equipment List,13,ER_TRAUMA1_FLR_1 ZN EQUIPMENT LIST,ER_TRAUMA1_FLR_1 ZN,1
   Zone Equipment Component,1,ZONEHVAC:IDEALLOADSAIRSYSTEM,ZONE HVAC IDEAL LOADS AIR SYSTEM 13,ER_TRAUMA1_FLR_1 ZN,1,1
 Zone Equipment List,14,ER_TRAUMA2_FLR_1 ZN EQUIPMENT LIST,ER_TRAUMA2_FLR_1 ZN,1
   Zone Equipment Component,1,ZONEHVAC:IDEALLOADSAIRSYSTEM,ZONE HVAC IDEAL LOADS AIR SYSTEM 14,ER_TRAUMA2_FLR_1 ZN,1,1
 Zone Equipment List,15,ER_TRIAGE_MULT4_FLR_1 ZN EQUIPMENT LIST,ER_TRIAGE_MULT4_FLR_1 ZN,1
   Zone Equipment Component,1,ZONEHVAC:IDEALLOADSAIRSYSTEM,ZONE HVAC IDEAL LOADS AIR SYSTEM 15,ER_TRIAGE_MULT4_FLR_1 ZN,1,1
 Zone Equipment List,16,ICU_FLR_2 ZN EQUIPMENT LIST,ICU_FLR_2 ZN,1
   Zone Equipment Component,1,ZONEHVAC:IDEALLOADSAIRSYSTEM,ZONE HVAC IDEAL LOADS AIR SYSTEM 16,ICU_FLR_2 ZN,1,1
 Zone Equipment List,17,ICU_NURSESTN_LOBBY_FLR_2 ZN EQUIPMENT LIST,ICU_NURSESTN_LOBBY_FLR_2 ZN,1
   Zone Equipment Component,1,ZONEHVAC:IDEALLOADSAIRSYSTEM,ZONE HVAC IDEAL LOADS AIR SYSTEM 17,ICU_NURSESTN_LOBBY_FLR_2 ZN,1,1
 Zone Equipment List,18,IC_PATROOM1_MULT5_FLR_2 ZN EQUIPMENT LIST,IC_PATROOM1_MULT5_FLR_2 ZN,1
   Zone Equipment Component,1,ZONEHVAC:IDEALLOADSAIRSYSTEM,ZONE HVAC IDEAL LOADS AIR SYSTEM 18,IC_PATROOM1_MULT5_FLR_2 ZN,1,1
 Zone Equipment List,19,IC_PATROOM2_FLR_2 ZN EQUIPMENT LIST,IC_PATROOM2_FLR_2 ZN,1
   Zone Equipment Component,1,ZONEHVAC:IDEALLOADSAIRSYSTEM,ZONE HVAC IDEAL LOADS AIR SYSTEM 19,IC_PATROOM2_FLR_2 ZN,1,1
 Zone Equipment List,20,IC_PATROOM3_MULT6_FLR_2 ZN EQUIPMENT LIST,IC_PATROOM3_MULT6_FLR_2 ZN,1
   Zone Equipment Component,1,ZONEHVAC:IDEALLOADSAIRSYSTEM,ZONE HVAC IDEAL LOADS AIR SYSTEM 20,IC_PATROOM3_MULT6_FLR_2 ZN,1,1
 Zone Equipment List,21,KITCHEN_FLR_5 ZN EQUIPMENT LIST,KITCHEN_FLR_5 ZN,1
   Zone Equipment Component,1,ZONEHVAC:IDEALLOADSAIRSYSTEM,ZONE HVAC IDEAL LOADS AIR SYSTEM 21,KITCHEN_FLR_5 ZN,1,1
 Zone Equipment List,22,LAB_FLR_3 ZN EQUIPMENT LIST,LAB_FLR_3 ZN,1
   Zone Equipment Component,1,ZONEHVAC:IDEALLOADSAIRSYSTEM,ZONE HVAC IDEAL LOADS AIR SYSTEM 22,LAB_FLR_3 ZN,1,1
 Zone Equipment List,23,LAB_FLR_4 ZN EQUIPMENT LIST,LAB_FLR_4 ZN,1
   Zone Equipment Component,1,ZONEHVAC:IDEALLOADSAIRSYSTEM,ZONE HVAC IDEAL LOADS AIR SYSTEM 23,LAB_FLR_4 ZN,1,1
 Zone Equipment List,24,LOBBY_RECORDS_FLR_1 ZN EQUIPMENT LIST,LOBBY_RECORDS_FLR_1 ZN,1
   Zone Equipment Component,1,ZONEHVAC:IDEALLOADSAIRSYSTEM,ZONE HVAC IDEAL LOADS AIR SYSTEM 24,LOBBY_RECORDS_FLR_1 ZN,1,1
 Zone Equipment List,25,NURSESTN_LOBBY_FLR_3 ZN EQUIPMENT LIST,NURSESTN_LOBBY_FLR_3 ZN,1
   Zone Equipment Component,1,ZONEHVAC:IDEALLOADSAIRSYSTEM,ZONE HVAC IDEAL LOADS AIR SYSTEM 25,NURSESTN_LOBBY_FLR_3 ZN,1,1
 Zone Equipment List,26,NURSESTN_LOBBY_FLR_4 ZN EQUIPMENT LIST,NURSESTN_LOBBY_FLR_4 ZN,1
   Zone Equipment Component,1,ZONEHVAC:IDEALLOADSAIRSYSTEM,ZONE HVAC IDEAL LOADS AIR SYSTEM 26,NURSESTN_LOBBY_FLR_4 ZN,1,1
 Zone Equipment List,27,NURSESTN_LOBBY_FLR_5 ZN EQUIPMENT LIST,NURSESTN_LOBBY_FLR_5 ZN,1
   Zone Equipment Component,1,ZONEHVAC:IDEALLOADSAIRSYSTEM,ZONE HVAC IDEAL LOADS AIR SYSTEM 27,NURSESTN_LOBBY_FLR_5 ZN,1,1
 Zone Equipment List,28,OFFICE1_FLR_5 ZN EQUIPMENT LIST,OFFICE1_FLR_5 ZN,1
   Zone Equipment Component,1,ZONEHVAC:IDEALLOADSAIRSYSTEM,ZONE HVAC IDEAL LOADS AIR SYSTEM 28,OFFICE1_FLR_5 ZN,1,1
 Zone Equipment List,29,OFFICE1_MULT4_FLR_1 ZN EQUIPMENT LIST,OFFICE1_MULT4_FLR_1 ZN,1
   Zone Equipment Component,1,ZONEHVAC:IDEALLOADSAIRSYSTEM,ZONE HVAC IDEAL LOADS AIR SYSTEM 29,OFFICE1_MULT4_FLR_1 ZN,1,1
 Zone Equipment List,30,OFFICE2_MULT5_FLR_5 ZN EQUIPMENT LIST,OFFICE2_MULT5_FLR_5 ZN,1
   Zone Equipment Component,1,ZONEHVAC:IDEALLOADSAIRSYSTEM,ZONE HVAC IDEAL LOADS AIR SYSTEM 30,OFFICE2_MULT5_FLR_5 ZN,1,1
 Zone Equipment List,31,OFFICE3_FLR_5 ZN EQUIPMENT LIST,OFFICE3_FLR_5 ZN,1
   Zone Equipment Component,1,ZONEHVAC:IDEALLOADSAIRSYSTEM,ZONE HVAC IDEAL LOADS AIR SYSTEM 31,OFFICE3_FLR_5 ZN,1,1
 Zone Equipment List,32,OFFICE4_MULT6_FLR_5 ZN EQUIPMENT LIST,OFFICE4_MULT6_FLR_5 ZN,1
   Zone Equipment Component,1,ZONEHVAC:IDEALLOADSAIRSYSTEM,ZONE HVAC IDEAL LOADS AIR SYSTEM 32,OFFICE4_MULT6_FLR_5 ZN,1,1
 Zone Equipment List,33,OR1_FLR_2 ZN EQUIPMENT LIST,OR1_FLR_2 ZN,1
   Zone Equipment Component,1,ZONEHVAC:IDEALLOADSAIRSYSTEM,ZONE HVAC IDEAL LOADS AIR SYSTEM 33,OR1_FLR_2 ZN,1,1
 Zone Equipment List,34,OR2_MULT5_FLR_2 ZN EQUIPMENT LIST,OR2_MULT5_FLR_2 ZN,1
   Zone Equipment Component,1,ZONEHVAC:IDEALLOADSAIRSYSTEM,ZONE HVAC IDEAL LOADS AIR SYSTEM 34,OR2_MULT5_FLR_2 ZN,1,1
 Zone Equipment List,35,OR3_FLR_2 ZN EQUIPMENT LIST,OR3_FLR_2 ZN,1
   Zone Equipment Component,1,ZONEHVAC:IDEALLOADSAIRSYSTEM,ZONE HVAC IDEAL LOADS AIR SYSTEM 35,OR3_FLR_2 ZN,1,1
 Zone Equipment List,36,OR4_FLR_2 ZN EQUIPMENT LIST,OR4_FLR_2 ZN,1
   Zone Equipment Component,1,ZONEHVAC:IDEALLOADSAIRSYSTEM,ZONE HVAC IDEAL LOADS AIR SYSTEM 36,OR4_FLR_2 ZN,1,1
 Zone Equipment List,37,OR_NURSESTN_LOBBY_FLR_2 ZN EQUIPMENT LIST,OR_NURSESTN_LOBBY_FLR_2 ZN,1
   Zone Equipment Component,1,ZONEHVAC:IDEALLOADSAIRSYSTEM,ZONE HVAC IDEAL LOADS AIR SYSTEM 37,OR_NURSESTN_LOBBY_FLR_2 ZN,1,1
 Zone Equipment List,38,PATROOM1_MULT10_FLR_3 ZN EQUIPMENT LIST,PATROOM1_MULT10_FLR_3 ZN,1
   Zone Equipment Component,1,ZONEHVAC:IDEALLOADSAIRSYSTEM,ZONE HVAC IDEAL LOADS AIR SYSTEM 38,PATROOM1_MULT10_FLR_3 ZN,1,1
 Zone Equipment List,39,PATROOM1_MULT10_FLR_4 ZN EQUIPMENT LIST,PATROOM1_MULT10_FLR_4 ZN,1
   Zone Equipment Component,1,ZONEHVAC:IDEALLOADSAIRSYSTEM,ZONE HVAC IDEAL LOADS AIR SYSTEM 39,PATROOM1_MULT10_FLR_4 ZN,1,1
 Zone Equipment List,40,PATROOM2_FLR_3 ZN EQUIPMENT LIST,PATROOM2_FLR_3 ZN,1
   Zone Equipment Component,1,ZONEHVAC:IDEALLOADSAIRSYSTEM,ZONE HVAC IDEAL LOADS AIR SYSTEM 40,PATROOM2_FLR_3 ZN,1,1
 Zone Equipment List,41,PATROOM2_FLR_4 ZN EQUIPMENT LIST,PATROOM2_FLR_4 ZN,1
   Zone Equipment Component,1,ZONEHVAC:IDEALLOADSAIRSYSTEM,ZONE HVAC IDEAL LOADS AIR SYSTEM 41,PATROOM2_FLR_4 ZN,1,1
 Zone Equipment List,42,PATROOM3_MULT10_FLR_3 ZN EQUIPMENT LIST,PATROOM3_MULT10_FLR_3 ZN,1
   Zone Equipment Component,1,ZONEHVAC:IDEALLOADSAIRSYSTEM,ZONE HVAC IDEAL LOADS AIR SYSTEM 42,PATROOM3_MULT10_FLR_3 ZN,1,1
 Zone Equipment List,43,PATROOM3_MULT10_FLR_4 ZN EQUIPMENT LIST,PATROOM3_MULT10_FLR_4 ZN,1
   Zone Equipment Component,1,ZONEHVAC:IDEALLOADSAIRSYSTEM,ZONE HVAC IDEAL LOADS AIR SYSTEM 43,PATROOM3_MULT10_FLR_4 ZN,1,1
 Zone Equipment List,44,PATROOM4_FLR_3 ZN EQUIPMENT LIST,PATROOM4_FLR_3 ZN,1
   Zone Equipment Component,1,ZONEHVAC:IDEALLOADSAIRSYSTEM,ZONE HVAC IDEAL LOADS AIR SYSTEM 44,PATROOM4_FLR_3 ZN,1,1
 Zone Equipment List,45,PATROOM4_FLR_4 ZN EQUIPMENT LIST,PATROOM4_FLR_4 ZN,1
   Zone Equipment Component,1,ZONEHVAC:IDEALLOADSAIRSYSTEM,ZONE HVAC IDEAL LOADS AIR SYSTEM 45,PATROOM4_FLR_4 ZN,1,1
 Zone Equipment List,46,PATROOM5_MULT10_FLR_3 ZN EQUIPMENT LIST,PATROOM5_MULT10_FLR_3 ZN,1
   Zone Equipment Component,1,ZONEHVAC:IDEALLOADSAIRSYSTEM,ZONE HVAC IDEAL LOADS AIR SYSTEM 46,PATROOM5_MULT10_FLR_3 ZN,1,1
 Zone Equipment List,47,PATROOM5_MULT10_FLR_4 ZN EQUIPMENT LIST,PATROOM5_MULT10_FLR_4 ZN,1
   Zone Equipment Component,1,ZONEHVAC:IDEALLOADSAIRSYSTEM,ZONE HVAC IDEAL LOADS AIR SYSTEM 47,PATROOM5_MULT10_FLR_4 ZN,1,1
 Zone Equipment List,48,PATROOM6_FLR_3 ZN EQUIPMENT LIST,PATROOM6_FLR_3 ZN,1
   Zone Equipment Component,1,ZONEHVAC:IDEALLOADSAIRSYSTEM,ZONE HVAC IDEAL LOADS AIR SYSTEM 48,PATROOM6_FLR_3 ZN,1,1
 Zone Equipment List,49,PATROOM6_FLR_4 ZN EQUIPMENT LIST,PATROOM6_FLR_4 ZN,1
   Zone Equipment Component,1,ZONEHVAC:IDEALLOADSAIRSYSTEM,ZONE HVAC IDEAL LOADS AIR SYSTEM 49,PATROOM6_FLR_4 ZN,1,1
 Zone Equipment List,50,PATROOM7_MULT10_FLR_3 ZN EQUIPMENT LIST,PATROOM7_MULT10_FLR_3 ZN,1
   Zone Equipment Component,1,ZONEHVAC:IDEALLOADSAIRSYSTEM,ZONE HVAC IDEAL LOADS AIR SYSTEM 50,PATROOM7_MULT10_FLR_3 ZN,1,1
 Zone Equipment List,51,PATROOM7_MULT10_FLR_4 ZN EQUIPMENT LIST,PATROOM7_MULT10_FLR_4 ZN,1
   Zone Equipment Component,1,ZONEHVAC:IDEALLOADSAIRSYSTEM,ZONE HVAC IDEAL LOADS AIR SYSTEM 51,PATROOM7_MULT10_FLR_4 ZN,1,1
 Zone Equipment List,52,PATROOM8_FLR_3 ZN EQUIPMENT LIST,PATROOM8_FLR_3 ZN,1
   Zone Equipment Component,1,ZONEHVAC:IDEALLOADSAIRSYSTEM,ZONE HVAC IDEAL LOADS AIR SYSTEM 52,PATROOM8_FLR_3 ZN,1,1
 Zone Equipment List,53,PATROOM8_FLR_4 ZN EQUIPMENT LIST,PATROOM8_FLR_4 ZN,1
   Zone Equipment Component,1,ZONEHVAC:IDEALLOADSAIRSYSTEM,ZONE HVAC IDEAL LOADS AIR SYSTEM 53,PATROOM8_FLR_4 ZN,1,1
 Zone Equipment List,54,PHYSTHERAPY_FLR_3 ZN EQUIPMENT LIST,PHYSTHERAPY_FLR_3 ZN,1
   Zone Equipment Component,1,ZONEHVAC:IDEALLOADSAIRSYSTEM,ZONE HVAC IDEAL LOADS AIR SYSTEM 54,PHYSTHERAPY_FLR_3 ZN,1,1
 Zone Equipment List,55,RADIOLOGY_FLR_4 ZN EQUIPMENT LIST,RADIOLOGY_FLR_4 ZN,1
   Zone Equipment Component,1,ZONEHVAC:IDEALLOADSAIRSYSTEM,ZONE HVAC IDEAL LOADS AIR SYSTEM 55,RADIOLOGY_FLR_4 ZN,1,1
! ===============================================================
! <#AirLoopHVACs>,<Number of AirLoopHVACs>
 #AirLoopHVACs,0
! <AirLoopHVAC>,<Air Loop Name>,<# Return Nodes>,<# Supply Nodes>,<# Zones Cooled>,<# Zones Heated>,<Outdoor Air Used>
! <AirLoop Return Connections>,<Connection Count>,<AirLoopHVAC Name>,<Zn Eqp Return Node #>,<Zn Eqp Return Node Name>,<AirLoop Return Node #>,<Air Loop Return Node Name>
! <AirLoop Supply Connections>,<Connection Count>,<AirLoopHVAC Name>,<Zn Eqp Supply Node #>,<Zn Eqp Supply Node Name>,<AirLoop Supply Node #>,<Air Loop Supply Node Name>
! <Cooled Zone Info>,<Cooled Zone Count>,<Cooled Zone Name>,<Cooled Zone Inlet Node #>,<Cooled Zone Inlet Node Name>,<AirLoopHVAC Name>
! <Heated Zone Info>,<Heated Zone Count>,<Heated Zone Name>,<Heated Zone Inlet Node #>,<Heated Zone Inlet Node Name>,<AirLoopHVAC Name>
! <Outdoor Air Connections>,<OA Inlet Node #>,<OA Return Air Inlet Node Name>,<OA Outlet Node #>,<OA Mixed Air Outlet Node Name>,<AirLoopHVAC Name>
! <AirLoopHVAC Connector>,<Connector Type>,<Connector Name>,<Loop Name>,<Loop Type>,<Number of Inlets/Outlets>
! <AirLoopHVAC Connector Branches>,<Connector Node Count>,<Connector Type>,<Connector Name>,<Inlet Branch>,<Outlet Branch>,<Loop Name>,<Loop Type>
! <AirLoopHVAC Connector Nodes>,<Connector Node Count>,<Connector Type>,<Connector Name>,<Inlet Node>,<Outlet Node>,<Loop Name>,<Loop Type>
! ===============================================================
! <#Parent Node Connections>,<Number of Parent Node Connections>
 #Parent Node Connections,0
! <Parent Node Connection>,<Node Name>,<Node ObjectType>,<Node ObjectName>,<Node ConnectionType>,<Node FluidStream>
! ===============================================================
! <#Non-Parent Node Connections>,<Number of Non-Parent Node Connections>
 #Non-Parent Node Connections,441
! <Non-Parent Node Connection>,<Node Name>,<Node ObjectType>,<Node ObjectName>,<Node ConnectionType>,<Node FluidStream>
 Non-Parent Node Connection,NODE 1,ZONEHVAC:EQUIPMENTCONNECTIONS,BASEMENT ZN,ZoneNode,1
 Non-Parent Node Connection,NODE 3,ZONEHVAC:EQUIPMENTCONNECTIONS,BASEMENT ZN,ZoneInlet,1
 Non-Parent Node Connection,NODE 2,ZONEHVAC:EQUIPMENTCONNECTIONS,BASEMENT ZN,ZoneExhaust,1
 Non-Parent Node Connection,BASEMENT ZN RETURN AIR NODE,ZONEHVAC:EQUIPMENTCONNECTIONS,BASEMENT ZN,ZoneReturn,1
 Non-Parent Node Connection,NODE 4,ZONEHVAC:EQUIPMENTCONNECTIONS,CORRIDOR_FLR_1 ZN,ZoneNode,1
 Non-Parent Node Connection,NODE 6,ZONEHVAC:EQUIPMENTCONNECTIONS,CORRIDOR_FLR_1 ZN,ZoneInlet,1
 Non-Parent Node Connection,NODE 5,ZONEHVAC:EQUIPMENTCONNECTIONS,CORRIDOR_FLR_1 ZN,ZoneExhaust,1
 Non-Parent Node Connection,CORRIDOR_FLR_1 ZN RETURN AIR NODE,ZONEHVAC:EQUIPMENTCONNECTIONS,CORRIDOR_FLR_1 ZN,ZoneReturn,1
 Non-Parent Node Connection,NODE 7,ZONEHVAC:EQUIPMENTCONNECTIONS,CORRIDOR_FLR_2 ZN,ZoneNode,1
 Non-Parent Node Connection,NODE 9,ZONEHVAC:EQUIPMENTCONNECTIONS,CORRIDOR_FLR_2 ZN,ZoneInlet,1
 Non-Parent Node Connection,NODE 8,ZONEHVAC:EQUIPMENTCONNECTIONS,CORRIDOR_FLR_2 ZN,ZoneExhaust,1
 Non-Parent Node Connection,CORRIDOR_FLR_2 ZN RETURN AIR NODE,ZONEHVAC:EQUIPMENTCONNECTIONS,CORRIDOR_FLR_2 ZN,ZoneReturn,1
 Non-Parent Node Connection,NODE 10,ZONEHVAC:EQUIPMENTCONNECTIONS,CORRIDOR_FLR_5 ZN,ZoneNode,1
 Non-Parent Node Connection,NODE 12,ZONEHVAC:EQUIPMENTCONNECTIONS,CORRIDOR_FLR_5 ZN,ZoneInlet,1
 Non-Parent Node Connection,NODE 11,ZONEHVAC:EQUIPMENTCONNECTIONS,CORRIDOR_FLR_5 ZN,ZoneExhaust,1
 Non-Parent Node Connection,CORRIDOR_FLR_5 ZN RETURN AIR NODE,ZONEHVAC:EQUIPMENTCONNECTIONS,CORRIDOR_FLR_5 ZN,ZoneReturn,1
 Non-Parent Node Connection,NODE 13,ZONEHVAC:EQUIPMENTCONNECTIONS,CORRIDOR_NW_FLR_3 ZN,ZoneNode,1
 Non-Parent Node Connection,NODE 15,ZONEHVAC:EQUIPMENTCONNECTIONS,CORRIDOR_NW_FLR_3 ZN,ZoneInlet,1
 Non-Parent Node Connection,NODE 14,ZONEHVAC:EQUIPMENTCONNECTIONS,CORRIDOR_NW_FLR_3 ZN,ZoneExhaust,1
 Non-Parent Node Connection,CORRIDOR_NW_FLR_3 ZN RETURN AIR NODE,ZONEHVAC:EQUIPMENTCONNECTIONS,CORRIDOR_NW_FLR_3 ZN,ZoneReturn,1
 Non-Parent Node Connection,NODE 16,ZONEHVAC:EQUIPMENTCONNECTIONS,CORRIDOR_NW_FLR_4 ZN,ZoneNode,1
 Non-Parent Node Connection,NODE 18,ZONEHVAC:EQUIPMENTCONNECTIONS,CORRIDOR_NW_FLR_4 ZN,ZoneInlet,1
 Non-Parent Node Connection,NODE 17,ZONEHVAC:EQUIPMENTCONNECTIONS,CORRIDOR_NW_FLR_4 ZN,ZoneExhaust,1
 Non-Parent Node Connection,CORRIDOR_NW_FLR_4 ZN RETURN AIR NODE,ZONEHVAC:EQUIPMENTCONNECTIONS,CORRIDOR_NW_FLR_4 ZN,ZoneReturn,1
 Non-Parent Node Connection,NODE 19,ZONEHVAC:EQUIPMENTCONNECTIONS,CORRIDOR_SE_FLR_3 ZN,ZoneNode,1
 Non-Parent Node Connection,NODE 21,ZONEHVAC:EQUIPMENTCONNECTIONS,CORRIDOR_SE_FLR_3 ZN,ZoneInlet,1
 Non-Parent Node Connection,NODE 20,ZONEHVAC:EQUIPMENTCONNECTIONS,CORRIDOR_SE_FLR_3 ZN,ZoneExhaust,1
 Non-Parent Node Connection,CORRIDOR_SE_FLR_3 ZN RETURN AIR NODE,ZONEHVAC:EQUIPMENTCONNECTIONS,CORRIDOR_SE_FLR_3 ZN,ZoneReturn,1
 Non-Parent Node Connection,NODE 22,ZONEHVAC:EQUIPMENTCONNECTIONS,CORRIDOR_SE_FLR_4 ZN,ZoneNode,1
 Non-Parent Node Connection,NODE 24,ZONEHVAC:EQUIPMENTCONNECTIONS,CORRIDOR_SE_FLR_4 ZN,ZoneInlet,1
 Non-Parent Node Connection,NODE 23,ZONEHVAC:EQUIPMENTCONNECTIONS,CORRIDOR_SE_FLR_4 ZN,ZoneExhaust,1
 Non-Parent Node Connection,CORRIDOR_SE_FLR_4 ZN RETURN AIR NODE,ZONEHVAC:EQUIPMENTCONNECTIONS,CORRIDOR_SE_FLR_4 ZN,ZoneReturn,1
 Non-Parent Node Connection,NODE 25,ZONEHVAC:EQUIPMENTCONNECTIONS,DINING_FLR_5 ZN,ZoneNode,1
 Non-Parent Node Connection,NODE 27,ZONEHVAC:EQUIPMENTCONNECTIONS,DINING_FLR_5 ZN,ZoneInlet,1
 Non-Parent Node Connection,NODE 26,ZONEHVAC:EQUIPMENTCONNECTIONS,DINING_FLR_5 ZN,ZoneExhaust,1
 Non-Parent Node Connection,DINING_FLR_5 ZN RETURN AIR NODE,ZONEHVAC:EQUIPMENTCONNECTIONS,DINING_FLR_5 ZN,ZoneReturn,1
 Non-Parent Node Connection,NODE 28,ZONEHVAC:EQUIPMENTCONNECTIONS,ER_EXAM1_MULT4_FLR_1 ZN,ZoneNode,1
 Non-Parent Node Connection,NODE 30,ZONEHVAC:EQUIPMENTCONNECTIONS,ER_EXAM1_MULT4_FLR_1 ZN,ZoneInlet,1
 Non-Parent Node Connection,NODE 29,ZONEHVAC:EQUIPMENTCONNECTIONS,ER_EXAM1_MULT4_FLR_1 ZN,ZoneExhaust,1
 Non-Parent Node Connection,ER_EXAM1_MULT4_FLR_1 ZN RETURN AIR NODE,ZONEHVAC:EQUIPMENTCONNECTIONS,ER_EXAM1_MULT4_FLR_1 ZN,ZoneReturn,1
 Non-Parent Node Connection,NODE 31,ZONEHVAC:EQUIPMENTCONNECTIONS,ER_EXAM3_MULT4_FLR_1 ZN,ZoneNode,1
 Non-Parent Node Connection,NODE 33,ZONEHVAC:EQUIPMENTCONNECTIONS,ER_EXAM3_MULT4_FLR_1 ZN,ZoneInlet,1
 Non-Parent Node Connection,NODE 32,ZONEHVAC:EQUIPMENTCONNECTIONS,ER_EXAM3_MULT4_FLR_1 ZN,ZoneExhaust,1
 Non-Parent Node Connection,ER_EXAM3_MULT4_FLR_1 ZN RETURN AIR NODE,ZONEHVAC:EQUIPMENTCONNECTIONS,ER_EXAM3_MULT4_FLR_1 ZN,ZoneReturn,1
 Non-Parent Node Connection,NODE 34,ZONEHVAC:EQUIPMENTCONNECTIONS,ER_NURSESTN_LOBBY_FLR_1 ZN,ZoneNode,1
 Non-Parent Node Connection,NODE 36,ZONEHVAC:EQUIPMENTCONNECTIONS,ER_NURSESTN_LOBBY_FLR_1 ZN,ZoneInlet,1
 Non-Parent Node Connection,NODE 35,ZONEHVAC:EQUIPMENTCONNECTIONS,ER_NURSESTN_LOBBY_FLR_1 ZN,ZoneExhaust,1
 Non-Parent Node Connection,ER_NURSESTN_LOBBY_FLR_1 ZN RETURN AIR NODE,ZONEHVAC:EQUIPMENTCONNECTIONS,ER_NURSESTN_LOBBY_FLR_1 ZN,ZoneReturn,1
 Non-Parent Node Connection,NODE 37,ZONEHVAC:EQUIPMENTCONNECTIONS,ER_TRAUMA1_FLR_1 ZN,ZoneNode,1
 Non-Parent Node Connection,NODE 39,ZONEHVAC:EQUIPMENTCONNECTIONS,ER_TRAUMA1_FLR_1 ZN,ZoneInlet,1
 Non-Parent Node Connection,NODE 38,ZONEHVAC:EQUIPMENTCONNECTIONS,ER_TRAUMA1_FLR_1 ZN,ZoneExhaust,1
 Non-Parent Node Connection,ER_TRAUMA1_FLR_1 ZN RETURN AIR NODE,ZONEHVAC:EQUIPMENTCONNECTIONS,ER_TRAUMA1_FLR_1 ZN,ZoneReturn,1
 Non-Parent Node Connection,NODE 40,ZONEHVAC:EQUIPMENTCONNECTIONS,ER_TRAUMA2_FLR_1 ZN,ZoneNode,1
 Non-Parent Node Connection,NODE 42,ZONEHVAC:EQUIPMENTCONNECTIONS,ER_TRAUMA2_FLR_1 ZN,ZoneInlet,1
 Non-Parent Node Connection,NODE 41,ZONEHVAC:EQUIPMENTCONNECTIONS,ER_TRAUMA2_FLR_1 ZN,ZoneExhaust,1
 Non-Parent Node Connection,ER_TRAUMA2_FLR_1 ZN RETURN AIR NODE,ZONEHVAC:EQUIPMENTCONNECTIONS,ER_TRAUMA2_FLR_1 ZN,ZoneReturn,1
 Non-Parent Node Connection,NODE 43,ZONEHVAC:EQUIPMENTCONNECTIONS,ER_TRIAGE_MULT4_FLR_1 ZN,ZoneNode,1
 Non-Parent Node Connection,NODE 45,ZONEHVAC:EQUIPMENTCONNECTIONS,ER_TRIAGE_MULT4_FLR_1 ZN,ZoneInlet,1
 Non-Parent Node Connection,NODE 44,ZONEHVAC:EQUIPMENTCONNECTIONS,ER_TRIAGE_MULT4_FLR_1 ZN,ZoneExhaust,1
 Non-Parent Node Connection,ER_TRIAGE_MULT4_FLR_1 ZN RETURN AIR NODE,ZONEHVAC:EQUIPMENTCONNECTIONS,ER_TRIAGE_MULT4_FLR_1 ZN,ZoneReturn,1
 Non-Parent Node Connection,NODE 46,ZONEHVAC:EQUIPMENTCONNECTIONS,ICU_FLR_2 ZN,ZoneNode,1
 Non-Parent Node Connection,NODE 48,ZONEHVAC:EQUIPMENTCONNECTIONS,ICU_FLR_2 ZN,ZoneInlet,1
 Non-Parent Node Connection,NODE 47,ZONEHVAC:EQUIPMENTCONNECTIONS,ICU_FLR_2 ZN,ZoneExhaust,1
 Non-Parent Node Connection,ICU_FLR_2 ZN RETURN AIR NODE,ZONEHVAC:EQUIPMENTCONNECTIONS,ICU_FLR_2 ZN,ZoneReturn,1
 Non-Parent Node Connection,NODE 49,ZONEHVAC:EQUIPMENTCONNECTIONS,ICU_NURSESTN_LOBBY_FLR_2 ZN,ZoneNode,1
 Non-Parent Node Connection,NODE 51,ZONEHVAC:EQUIPMENTCONNECTIONS,ICU_NURSESTN_LOBBY_FLR_2 ZN,ZoneInlet,1
 Non-Parent Node Connection,NODE 50,ZONEHVAC:EQUIPMENTCONNECTIONS,ICU_NURSESTN_LOBBY_FLR_2 ZN,ZoneExhaust,1
 Non-Parent Node Connection,ICU_NURSESTN_LOBBY_FLR_2 ZN RETURN AIR NODE,ZONEHVAC:EQUIPMENTCONNECTIONS,ICU_NURSESTN_LOBBY_FLR_2 ZN,ZoneReturn,1
 Non-Parent Node Connection,NODE 52,ZONEHVAC:EQUIPMENTCONNECTIONS,IC_PATROOM1_MULT5_FLR_2 ZN,ZoneNode,1
 Non-Parent Node Connection,NODE 54,ZONEHVAC:EQUIPMENTCONNECTIONS,IC_PATROOM1_MULT5_FLR_2 ZN,ZoneInlet,1
 Non-Parent Node Connection,NODE 53,ZONEHVAC:EQUIPMENTCONNECTIONS,IC_PATROOM1_MULT5_FLR_2 ZN,ZoneExhaust,1
 Non-Parent Node Connection,IC_PATROOM1_MULT5_FLR_2 ZN RETURN AIR NODE,ZONEHVAC:EQUIPMENTCONNECTIONS,IC_PATROOM1_MULT5_FLR_2 ZN,ZoneReturn,1
 Non-Parent Node Connection,NODE 55,ZONEHVAC:EQUIPMENTCONNECTIONS,IC_PATROOM2_FLR_2 ZN,ZoneNode,1
 Non-Parent Node Connection,NODE 57,ZONEHVAC:EQUIPMENTCONNECTIONS,IC_PATROOM2_FLR_2 ZN,ZoneInlet,1
 Non-Parent Node Connection,NODE 56,ZONEHVAC:EQUIPMENTCONNECTIONS,IC_PATROOM2_FLR_2 ZN,ZoneExhaust,1
 Non-Parent Node Connection,IC_PATROOM2_FLR_2 ZN RETURN AIR NODE,ZONEHVAC:EQUIPMENTCONNECTIONS,IC_PATROOM2_FLR_2 ZN,ZoneReturn,1
 Non-Parent Node Connection,NODE 58,ZONEHVAC:EQUIPMENTCONNECTIONS,IC_PATROOM3_MULT6_FLR_2 ZN,ZoneNode,1
 Non-Parent Node Connection,NODE 60,ZONEHVAC:EQUIPMENTCONNECTIONS,IC_PATROOM3_MULT6_FLR_2 ZN,ZoneInlet,1
 Non-Parent Node Connection,NODE 59,ZONEHVAC:EQUIPMENTCONNECTIONS,IC_PATROOM3_MULT6_FLR_2 ZN,ZoneExhaust,1
 Non-Parent Node Connection,IC_PATROOM3_MULT6_FLR_2 ZN RETURN AIR NODE,ZONEHVAC:EQUIPMENTCONNECTIONS,IC_PATROOM3_MULT6_FLR_2 ZN,ZoneReturn,1
 Non-Parent Node Connection,NODE 61,ZONEHVAC:EQUIPMENTCONNECTIONS,KITCHEN_FLR_5 ZN,ZoneNode,1
 Non-Parent Node Connection,NODE 63,ZONEHVAC:EQUIPMENTCONNECTIONS,KITCHEN_FLR_5 ZN,ZoneInlet,1
 Non-Parent Node Connection,NODE 62,ZONEHVAC:EQUIPMENTCONNECTIONS,KITCHEN_FLR_5 ZN,ZoneExhaust,1
 Non-Parent Node Connection,KITCHEN_FLR_5 ZN RETURN AIR NODE,ZONEHVAC:EQUIPMENTCONNECTIONS,KITCHEN_FLR_5 ZN,ZoneReturn,1
 Non-Parent Node Connection,NODE 64,ZONEHVAC:EQUIPMENTCONNECTIONS,LAB_FLR_3 ZN,ZoneNode,1
 Non-Parent Node Connection,NODE 66,ZONEHVAC:EQUIPMENTCONNECTIONS,LAB_FLR_3 ZN,ZoneInlet,1
 Non-Parent Node Connection,NODE 65,ZONEHVAC:EQUIPMENTCONNECTIONS,LAB_FLR_3 ZN,ZoneExhaust,1
 Non-Parent Node Connection,LAB_FLR_3 ZN RETURN AIR NODE,ZONEHVAC:EQUIPMENTCONNECTIONS,LAB_FLR_3 ZN,ZoneReturn,1
 Non-Parent Node Connection,NODE 67,ZONEHVAC:EQUIPMENTCONNECTIONS,LAB_FLR_4 ZN,ZoneNode,1
 Non-Parent Node Connection,NODE 69,ZONEHVAC:EQUIPMENTCONNECTIONS,LAB_FLR_4 ZN,ZoneInlet,1
 Non-Parent Node Connection,NODE 68,ZONEHVAC:EQUIPMENTCONNECTIONS,LAB_FLR_4 ZN,ZoneExhaust,1
 Non-Parent Node Connection,LAB_FLR_4 ZN RETURN AIR NODE,ZONEHVAC:EQUIPMENTCONNECTIONS,LAB_FLR_4 ZN,ZoneReturn,1
 Non-Parent Node Connection,NODE 70,ZONEHVAC:EQUIPMENTCONNECTIONS,LOBBY_RECORDS_FLR_1 ZN,ZoneNode,1
 Non-Parent Node Connection,NODE 72,ZONEHVAC:EQUIPMENTCONNECTIONS,LOBBY_RECORDS_FLR_1 ZN,ZoneInlet,1
 Non-Parent Node Connection,NODE 71,ZONEHVAC:EQUIPMENTCONNECTIONS,LOBBY_RECORDS_FLR_1 ZN,ZoneExhaust,1
 Non-Parent Node Connection,LOBBY_RECORDS_FLR_1 ZN RETURN AIR NODE,ZONEHVAC:EQUIPMENTCONNECTIONS,LOBBY_RECORDS_FLR_1 ZN,ZoneReturn,1
 Non-Parent Node Connection,NODE 73,ZONEHVAC:EQUIPMENTCONNECTIONS,NURSESTN_LOBBY_FLR_3 ZN,ZoneNode,1
 Non-Parent Node Connection,NODE 75,ZONEHVAC:EQUIPMENTCONNECTIONS,NURSESTN_LOBBY_FLR_3 ZN,ZoneInlet,1
 Non-Parent Node Connection,NODE 74,ZONEHVAC:EQUIPMENTCONNECTIONS,NURSESTN_LOBBY_FLR_3 ZN,ZoneExhaust,1
 Non-Parent Node Connection,NURSESTN_LOBBY_FLR_3 ZN RETURN AIR NODE,ZONEHVAC:EQUIPMENTCONNECTIONS,NURSESTN_LOBBY_FLR_3 ZN,ZoneReturn,1
 Non-Parent Node Connection,NODE 76,ZONEHVAC:EQUIPMENTCONNECTIONS,NURSESTN_LOBBY_FLR_4 ZN,ZoneNode,1
 Non-Parent Node Connection,NODE 78,ZONEHVAC:EQUIPMENTCONNECTIONS,NURSESTN_LOBBY_FLR_4 ZN,ZoneInlet,1
 Non-Parent Node Connection,NODE 77,ZONEHVAC:EQUIPMENTCONNECTIONS,NURSESTN_LOBBY_FLR_4 ZN,ZoneExhaust,1
 Non-Parent Node Connection,NURSESTN_LOBBY_FLR_4 ZN RETURN AIR NODE,ZONEHVAC:EQUIPMENTCONNECTIONS,NURSESTN_LOBBY_FLR_4 ZN,ZoneReturn,1
 Non-Parent Node Connection,NODE 79,ZONEHVAC:EQUIPMENTCONNECTIONS,NURSESTN_LOBBY_FLR_5 ZN,ZoneNode,1
 Non-Parent Node Connection,NODE 81,ZONEHVAC:EQUIPMENTCONNECTIONS,NURSESTN_LOBBY_FLR_5 ZN,ZoneInlet,1
 Non-Parent Node Connection,NODE 80,ZONEHVAC:EQUIPMENTCONNECTIONS,NURSESTN_LOBBY_FLR_5 ZN,ZoneExhaust,1
 Non-Parent Node Connection,NURSESTN_LOBBY_FLR_5 ZN RETURN AIR NODE,ZONEHVAC:EQUIPMENTCONNECTIONS,NURSESTN_LOBBY_FLR_5 ZN,ZoneReturn,1
 Non-Parent Node Connection,NODE 82,ZONEHVAC:EQUIPMENTCONNECTIONS,OFFICE1_FLR_5 ZN,ZoneNode,1
 Non-Parent Node Connection,NODE 84,ZONEHVAC:EQUIPMENTCONNECTIONS,OFFICE1_FLR_5 ZN,ZoneInlet,1
 Non-Parent Node Connection,NODE 83,ZONEHVAC:EQUIPMENTCONNECTIONS,OFFICE1_FLR_5 ZN,ZoneExhaust,1
 Non-Parent Node Connection,OFFICE1_FLR_5 ZN RETURN AIR NODE,ZONEHVAC:EQUIPMENTCONNECTIONS,OFFICE1_FLR_5 ZN,ZoneReturn,1
 Non-Parent Node Connection,NODE 85,ZONEHVAC:EQUIPMENTCONNECTIONS,OFFICE1_MULT4_FLR_1 ZN,ZoneNode,1
 Non-Parent Node Connection,NODE 87,ZONEHVAC:EQUIPMENTCONNECTIONS,OFFICE1_MULT4_FLR_1 ZN,ZoneInlet,1
 Non-Parent Node Connection,NODE 86,ZONEHVAC:EQUIPMENTCONNECTIONS,OFFICE1_MULT4_FLR_1 ZN,ZoneExhaust,1
 Non-Parent Node Connection,OFFICE1_MULT4_FLR_1 ZN RETURN AIR NODE,ZONEHVAC:EQUIPMENTCONNECTIONS,OFFICE1_MULT4_FLR_1 ZN,ZoneReturn,1
 Non-Parent Node Connection,NODE 88,ZONEHVAC:EQUIPMENTCONNECTIONS,OFFICE2_MULT5_FLR_5 ZN,ZoneNode,1
 Non-Parent Node Connection,NODE 90,ZONEHVAC:EQUIPMENTCONNECTIONS,OFFICE2_MULT5_FLR_5 ZN,ZoneInlet,1
 Non-Parent Node Connection,NODE 89,ZONEHVAC:EQUIPMENTCONNECTIONS,OFFICE2_MULT5_FLR_5 ZN,ZoneExhaust,1
 Non-Parent Node Connection,OFFICE2_MULT5_FLR_5 ZN RETURN AIR NODE,ZONEHVAC:EQUIPMENTCONNECTIONS,OFFICE2_MULT5_FLR_5 ZN,ZoneReturn,1
 Non-Parent Node Connection,NODE 91,ZONEHVAC:EQUIPMENTCONNECTIONS,OFFICE3_FLR_5 ZN,ZoneNode,1
 Non-Parent Node Connection,NODE 93,ZONEHVAC:EQUIPMENTCONNECTIONS,OFFICE3_FLR_5 ZN,ZoneInlet,1
 Non-Parent Node Connection,NODE 92,ZONEHVAC:EQUIPMENTCONNECTIONS,OFFICE3_FLR_5 ZN,ZoneExhaust,1
 Non-Parent Node Connection,OFFICE3_FLR_5 ZN RETURN AIR NODE,ZONEHVAC:EQUIPMENTCONNECTIONS,OFFICE3_FLR_5 ZN,ZoneReturn,1
 Non-Parent Node Connection,NODE 94,ZONEHVAC:EQUIPMENTCONNECTIONS,OFFICE4_MULT6_FLR_5 ZN,ZoneNode,1
 Non-Parent Node Connection,NODE 96,ZONEHVAC:EQUIPMENTCONNECTIONS,OFFICE4_MULT6_FLR_5 ZN,ZoneInlet,1
 Non-Parent Node Connection,NODE 95,ZONEHVAC:EQUIPMENTCONNECTIONS,OFFICE4_MULT6_FLR_5 ZN,ZoneExhaust,1
 Non-Parent Node Connection,OFFICE4_MULT6_FLR_5 ZN RETURN AIR NODE,ZONEHVAC:EQUIPMENTCONNECTIONS,OFFICE4_MULT6_FLR_5 ZN,ZoneReturn,1
 Non-Parent Node Connection,NODE 97,ZONEHVAC:EQUIPMENTCONNECTIONS,OR1_FLR_2 ZN,ZoneNode,1
 Non-Parent Node Connection,NODE 99,ZONEHVAC:EQUIPMENTCONNECTIONS,OR1_FLR_2 ZN,ZoneInlet,1
 Non-Parent Node Connection,NODE 98,ZONEHVAC:EQUIPMENTCONNECTIONS,OR1_FLR_2 ZN,ZoneExhaust,1
 Non-Parent Node Connection,OR1_FLR_2 ZN RETURN AIR NODE,ZONEHVAC:EQUIPMENTCONNECTIONS,OR1_FLR_2 ZN,ZoneReturn,1
 Non-Parent Node Connection,NODE 100,ZONEHVAC:EQUIPMENTCONNECTIONS,OR2_MULT5_FLR_2 ZN,ZoneNode,1
 Non-Parent Node Connection,NODE 102,ZONEHVAC:EQUIPMENTCONNECTIONS,OR2_MULT5_FLR_2 ZN,ZoneInlet,1
 Non-Parent Node Connection,NODE 101,ZONEHVAC:EQUIPMENTCONNECTIONS,OR2_MULT5_FLR_2 ZN,ZoneExhaust,1
 Non-Parent Node Connection,OR2_MULT5_FLR_2 ZN RETURN AIR NODE,ZONEHVAC:EQUIPMENTCONNECTIONS,OR2_MULT5_FLR_2 ZN,ZoneReturn,1
 Non-Parent Node Connection,NODE 103,ZONEHVAC:EQUIPMENTCONNECTIONS,OR3_FLR_2 ZN,ZoneNode,1
 Non-Parent Node Connection,NODE 105,ZONEHVAC:EQUIPMENTCONNECTIONS,OR3_FLR_2 ZN,ZoneInlet,1
 Non-Parent Node Connection,NODE 104,ZONEHVAC:EQUIPMENTCONNECTIONS,OR3_FLR_2 ZN,ZoneExhaust,1
 Non-Parent Node Connection,OR3_FLR_2 ZN RETURN AIR NODE,ZONEHVAC:EQUIPMENTCONNECTIONS,OR3_FLR_2 ZN,ZoneReturn,1
 Non-Parent Node Connection,NODE 106,ZONEHVAC:EQUIPMENTCONNECTIONS,OR4_FLR_2 ZN,ZoneNode,1
 Non-Parent Node Connection,NODE 108,ZONEHVAC:EQUIPMENTCONNECTIONS,OR4_FLR_2 ZN,ZoneInlet,1
 Non-Parent Node Connection,NODE 107,ZONEHVAC:EQUIPMENTCONNECTIONS,OR4_FLR_2 ZN,ZoneExhaust,1
 Non-Parent Node Connection,OR4_FLR_2 ZN RETURN AIR NODE,ZONEHVAC:EQUIPMENTCONNECTIONS,OR4_FLR_2 ZN,ZoneReturn,1
 Non-Parent Node Connection,NODE 109,ZONEHVAC:EQUIPMENTCONNECTIONS,OR_NURSESTN_LOBBY_FLR_2 ZN,ZoneNode,1
 Non-Parent Node Connection,NODE 111,ZONEHVAC:EQUIPMENTCONNECTIONS,OR_NURSESTN_LOBBY_FLR_2 ZN,ZoneInlet,1
 Non-Parent Node Connection,NODE 110,ZONEHVAC:EQUIPMENTCONNECTIONS,OR_NURSESTN_LOBBY_FLR_2 ZN,ZoneExhaust,1
 Non-Parent Node Connection,OR_NURSESTN_LOBBY_FLR_2 ZN RETURN AIR NODE,ZONEHVAC:EQUIPMENTCONNECTIONS,OR_NURSESTN_LOBBY_FLR_2 ZN,ZoneReturn,1
 Non-Parent Node Connection,NODE 112,ZONEHVAC:EQUIPMENTCONNECTIONS,PATROOM1_MULT10_FLR_3 ZN,ZoneNode,1
 Non-Parent Node Connection,NODE 114,ZONEHVAC:EQUIPMENTCONNECTIONS,PATROOM1_MULT10_FLR_3 ZN,ZoneInlet,1
 Non-Parent Node Connection,NODE 113,ZONEHVAC:EQUIPMENTCONNECTIONS,PATROOM1_MULT10_FLR_3 ZN,ZoneExhaust,1
 Non-Parent Node Connection,PATROOM1_MULT10_FLR_3 ZN RETURN AIR NODE,ZONEHVAC:EQUIPMENTCONNECTIONS,PATROOM1_MULT10_FLR_3 ZN,ZoneReturn,1
 Non-Parent Node Connection,NODE 115,ZONEHVAC:EQUIPMENTCONNECTIONS,PATROOM1_MULT10_FLR_4 ZN,ZoneNode,1
 Non-Parent Node Connection,NODE 117,ZONEHVAC:EQUIPMENTCONNECTIONS,PATROOM1_MULT10_FLR_4 ZN,ZoneInlet,1
 Non-Parent Node Connection,NODE 116,ZONEHVAC:EQUIPMENTCONNECTIONS,PATROOM1_MULT10_FLR_4 ZN,ZoneExhaust,1
 Non-Parent Node Connection,PATROOM1_MULT10_FLR_4 ZN RETURN AIR NODE,ZONEHVAC:EQUIPMENTCONNECTIONS,PATROOM1_MULT10_FLR_4 ZN,ZoneReturn,1
 Non-Parent Node Connection,NODE 118,ZONEHVAC:EQUIPMENTCONNECTIONS,PATROOM2_FLR_3 ZN,ZoneNode,1
 Non-Parent Node Connection,NODE 120,ZONEHVAC:EQUIPMENTCONNECTIONS,PATROOM2_FLR_3 ZN,ZoneInlet,1
 Non-Parent Node Connection,NODE 119,ZONEHVAC:EQUIPMENTCONNECTIONS,PATROOM2_FLR_3 ZN,ZoneExhaust,1
 Non-Parent Node Connection,PATROOM2_FLR_3 ZN RETURN AIR NODE,ZONEHVAC:EQUIPMENTCONNECTIONS,PATROOM2_FLR_3 ZN,ZoneReturn,1
 Non-Parent Node Connection,NODE 121,ZONEHVAC:EQUIPMENTCONNECTIONS,PATROOM2_FLR_4 ZN,ZoneNode,1
 Non-Parent Node Connection,NODE 123,ZONEHVAC:EQUIPMENTCONNECTIONS,PATROOM2_FLR_4 ZN,ZoneInlet,1
 Non-Parent Node Connection,NODE 122,ZONEHVAC:EQUIPMENTCONNECTIONS,PATROOM2_FLR_4 ZN,ZoneExhaust,1
 Non-Parent Node Connection,PATROOM2_FLR_4 ZN RETURN AIR NODE,ZONEHVAC:EQUIPMENTCONNECTIONS,PATROOM2_FLR_4 ZN,ZoneReturn,1
 Non-Parent Node Connection,NODE 124,ZONEHVAC:EQUIPMENTCONNECTIONS,PATROOM3_MULT10_FLR_3 ZN,ZoneNode,1
 Non-Parent Node Connection,NODE 126,ZONEHVAC:EQUIPMENTCONNECTIONS,PATROOM3_MULT10_FLR_3 ZN,ZoneInlet,1
 Non-Parent Node Connection,NODE 125,ZONEHVAC:EQUIPMENTCONNECTIONS,PATROOM3_MULT10_FLR_3 ZN,ZoneExhaust,1
 Non-Parent Node Connection,PATROOM3_MULT10_FLR_3 ZN RETURN AIR NODE,ZONEHVAC:EQUIPMENTCONNECTIONS,PATROOM3_MULT10_FLR_3 ZN,ZoneReturn,1
 Non-Parent Node Connection,NODE 127,ZONEHVAC:EQUIPMENTCONNECTIONS,PATROOM3_MULT10_FLR_4 ZN,ZoneNode,1
 Non-Parent Node Connection,NODE 129,ZONEHVAC:EQUIPMENTCONNECTIONS,PATROOM3_MULT10_FLR_4 ZN,ZoneInlet,1
 Non-Parent Node Connection,NODE 128,ZONEHVAC:EQUIPMENTCONNECTIONS,PATROOM3_MULT10_FLR_4 ZN,ZoneExhaust,1
 Non-Parent Node Connection,PATROOM3_MULT10_FLR_4 ZN RETURN AIR NODE,ZONEHVAC:EQUIPMENTCONNECTIONS,PATROOM3_MULT10_FLR_4 ZN,ZoneReturn,1
 Non-Parent Node Connection,NODE 130,ZONEHVAC:EQUIPMENTCONNECTIONS,PATROOM4_FLR_3 ZN,ZoneNode,1
 Non-Parent Node Connection,NODE 132,ZONEHVAC:EQUIPMENTCONNECTIONS,PATROOM4_FLR_3 ZN,ZoneInlet,1
 Non-Parent Node Connection,NODE 131,ZONEHVAC:EQUIPMENTCONNECTIONS,PATROOM4_FLR_3 ZN,ZoneExhaust,1
 Non-Parent Node Connection,PATROOM4_FLR_3 ZN RETURN AIR NODE,ZONEHVAC:EQUIPMENTCONNECTIONS,PATROOM4_FLR_3 ZN,ZoneReturn,1
 Non-Parent Node Connection,NODE 133,ZONEHVAC:EQUIPMENTCONNECTIONS,PATROOM4_FLR_4 ZN,ZoneNode,1
 Non-Parent Node Connection,NODE 135,ZONEHVAC:EQUIPMENTCONNECTIONS,PATROOM4_FLR_4 ZN,ZoneInlet,1
 Non-Parent Node Connection,NODE 134,ZONEHVAC:EQUIPMENTCONNECTIONS,PATROOM4_FLR_4 ZN,ZoneExhaust,1
 Non-Parent Node Connection,PATROOM4_FLR_4 ZN RETURN AIR NODE,ZONEHVAC:EQUIPMENTCONNECTIONS,PATROOM4_FLR_4 ZN,ZoneReturn,1
 Non-Parent Node Connection,NODE 136,ZONEHVAC:EQUIPMENTCONNECTIONS,PATROOM5_MULT10_FLR_3 ZN,ZoneNode,1
 Non-Parent Node Connection,NODE 138,ZONEHVAC:EQUIPMENTCONNECTIONS,PATROOM5_MULT10_FLR_3 ZN,ZoneInlet,1
 Non-Parent Node Connection,NODE 137,ZONEHVAC:EQUIPMENTCONNECTIONS,PATROOM5_MULT10_FLR_3 ZN,ZoneExhaust,1
 Non-Parent Node Connection,PATROOM5_MULT10_FLR_3 ZN RETURN AIR NODE,ZONEHVAC:EQUIPMENTCONNECTIONS,PATROOM5_MULT10_FLR_3 ZN,ZoneReturn,1
 Non-Parent Node Connection,NODE 139,ZONEHVAC:EQUIPMENTCONNECTIONS,PATROOM5_MULT10_FLR_4 ZN,ZoneNode,1
 Non-Parent Node Connection,NODE 141,ZONEHVAC:EQUIPMENTCONNECTIONS,PATROOM5_MULT10_FLR_4 ZN,ZoneInlet,1
 Non-Parent Node Connection,NODE 140,ZONEHVAC:EQUIPMENTCONNECTIONS,PATROOM5_MULT10_FLR_4 ZN,ZoneExhaust,1
 Non-Parent Node Connection,PATROOM5_MULT10_FLR_4 ZN RETURN AIR NODE,ZONEHVAC:EQUIPMENTCONNECTIONS,PATROOM5_MULT10_FLR_4 ZN,ZoneReturn,1
 Non-Parent Node Connection,NODE 142,ZONEHVAC:EQUIPMENTCONNECTIONS,PATROOM6_FLR_3 ZN,ZoneNode,1
 Non-Parent Node Connection,NODE 144,ZONEHVAC:EQUIPMENTCONNECTIONS,PATROOM6_FLR_3 ZN,ZoneInlet,1
 Non-Parent Node Connection,NODE 143,ZONEHVAC:EQUIPMENTCONNECTIONS,PATROOM6_FLR_3 ZN,ZoneExhaust,1
 Non-Parent Node Connection,PATROOM6_FLR_3 ZN RETURN AIR NODE,ZONEHVAC:EQUIPMENTCONNECTIONS,PATROOM6_FLR_3 ZN,ZoneReturn,1
 Non-Parent Node Connection,NODE 145,ZONEHVAC:EQUIPMENTCONNECTIONS,PATROOM6_FLR_4 ZN,ZoneNode,1
 Non-Parent Node Connection,NODE 147,ZONEHVAC:EQUIPMENTCONNECTIONS,PATROOM6_FLR_4 ZN,ZoneInlet,1
 Non-Parent Node Connection,NODE 146,ZONEHVAC:EQUIPMENTCONNECTIONS,PATROOM6_FLR_4 ZN,ZoneExhaust,1
 Non-Parent Node Connection,PATROOM6_FLR_4 ZN RETURN AIR NODE,ZONEHVAC:EQUIPMENTCONNECTIONS,PATROOM6_FLR_4 ZN,ZoneReturn,1
 Non-Parent Node Connection,NODE 148,ZONEHVAC:EQUIPMENTCONNECTIONS,PATROOM7_MULT10_FLR_3 ZN,ZoneNode,1
 Non-Parent Node Connection,NODE 150,ZONEHVAC:EQUIPMENTCONNECTIONS,PATROOM7_MULT10_FLR_3 ZN,ZoneInlet,1
 Non-Parent Node Connection,NODE 149,ZONEHVAC:EQUIPMENTCONNECTIONS,PATROOM7_MULT10_FLR_3 ZN,ZoneExhaust,1
 Non-Parent Node Connection,PATROOM7_MULT10_FLR_3 ZN RETURN AIR NODE,ZONEHVAC:EQUIPMENTCONNECTIONS,PATROOM7_MULT10_FLR_3 ZN,ZoneReturn,1
 Non-Parent Node Connection,NODE 151,ZONEHVAC:EQUIPMENTCONNECTIONS,PATROOM7_MULT10_FLR_4 ZN,ZoneNode,1
 Non-Parent Node Connection,NODE 153,ZONEHVAC:EQUIPMENTCONNECTIONS,PATROOM7_MULT10_FLR_4 ZN,ZoneInlet,1
 Non-Parent Node Connection,NODE 152,ZONEHVAC:EQUIPMENTCONNECTIONS,PATROOM7_MULT10_FLR_4 ZN,ZoneExhaust,1
 Non-Parent Node Connection,PATROOM7_MULT10_FLR_4 ZN RETURN AIR NODE,ZONEHVAC:EQUIPMENTCONNECTIONS,PATROOM7_MULT10_FLR_4 ZN,ZoneReturn,1
 Non-Parent Node Connection,NODE 154,ZONEHVAC:EQUIPMENTCONNECTIONS,PATROOM8_FLR_3 ZN,ZoneNode,1
 Non-Parent Node Connection,NODE 156,ZONEHVAC:EQUIPMENTCONNECTIONS,PATROOM8_FLR_3 ZN,ZoneInlet,1
 Non-Parent Node Connection,NODE 155,ZONEHVAC:EQUIPMENTCONNECTIONS,PATROOM8_FLR_3 ZN,ZoneExhaust,1
 Non-Parent Node Connection,PATROOM8_FLR_3 ZN RETURN AIR NODE,ZONEHVAC:EQUIPMENTCONNECTIONS,PATROOM8_FLR_3 ZN,ZoneReturn,1
 Non-Parent Node Connection,NODE 157,ZONEHVAC:EQUIPMENTCONNECTIONS,PATROOM8_FLR_4 ZN,ZoneNode,1
 Non-Parent Node Connection,NODE 159,ZONEHVAC:EQUIPMENTCONNECTIONS,PATROOM8_FLR_4 ZN,ZoneInlet,1
 Non-Parent Node Connection,NODE 158,ZONEHVAC:EQUIPMENTCONNECTIONS,PATROOM8_FLR_4 ZN,ZoneExhaust,1
 Non-Parent Node Connection,PATROOM8_FLR_4 ZN RETURN AIR NODE,ZONEHVAC:EQUIPMENTCONNECTIONS,PATROOM8_FLR_4 ZN,ZoneReturn,1
 Non-Parent Node Connection,NODE 160,ZONEHVAC:EQUIPMENTCONNECTIONS,PHYSTHERAPY_FLR_3 ZN,ZoneNode,1
 Non-Parent Node Connection,NODE 162,ZONEHVAC:EQUIPMENTCONNECTIONS,PHYSTHERAPY_FLR_3 ZN,ZoneInlet,1
 Non-Parent Node Connection,NODE 161,ZONEHVAC:EQUIPMENTCONNECTIONS,PHYSTHERAPY_FLR_3 ZN,ZoneExhaust,1
 Non-Parent Node Connection,PHYSTHERAPY_FLR_3 ZN RETURN AIR NODE,ZONEHVAC:EQUIPMENTCONNECTIONS,PHYSTHERAPY_FLR_3 ZN,ZoneReturn,1
 Non-Parent Node Connection,NODE 163,ZONEHVAC:EQUIPMENTCONNECTIONS,RADIOLOGY_FLR_4 ZN,ZoneNode,1
 Non-Parent Node Connection,NODE 165,ZONEHVAC:EQUIPMENTCONNECTIONS,RADIOLOGY_FLR_4 ZN,ZoneInlet,1
 Non-Parent Node Connection,NODE 164,ZONEHVAC:EQUIPMENTCONNECTIONS,RADIOLOGY_FLR_4 ZN,ZoneExhaust,1
 Non-Parent Node Connection,RADIOLOGY_FLR_4 ZN RETURN AIR NODE,ZONEHVAC:EQUIPMENTCONNECTIONS,RADIOLOGY_FLR_4 ZN,ZoneReturn,1
 Non-Parent Node Connection,MODEL OUTDOOR AIR NODE,OUTDOORAIR:NODE,OutdoorAir:Node,OutdoorAir,1
 Non-Parent Node Connection,NODE 3,ZONEHVAC:IDEALLOADSAIRSYSTEM,ZONE HVAC IDEAL LOADS AIR SYSTEM 1,Outlet,1
 Non-Parent Node Connection,NODE 2,ZONEHVAC:IDEALLOADSAIRSYSTEM,ZONE HVAC IDEAL LOADS AIR SYSTEM 1,Inlet,1
[...]
 Non-Parent Node Connection,NODE 50,ZONEHVAC:IDEALLOADSAIRSYSTEM,ZONE HVAC IDEAL LOADS AIR SYSTEM 17,Inlet,1
 Non-Parent Node Connection,ZONE HVAC IDEAL LOADS AIR SYSTEM 17 OUTDOOR AIR INLET NODE,ZONEHVAC:IDEALLOADSAIRSYSTEM,ZONE HVAC IDEAL LOADS AIR SYSTEM 17,Outlet,1
 Non-Parent Node Connection,ZONE HVAC IDEAL LOADS AIR SYSTEM 17 OUTDOOR AIR INLET NODE,OUTDOORAIR:NODE,OutdoorAir:Node,OutdoorAir,18
 Non-Parent Node Connection,NODE 54,ZONEHVAC:IDEALLOADSAIRSYSTEM,ZONE HVAC IDEAL LOADS AIR SYSTEM 18,Outlet,1
 Non-Parent Node Connection,NODE 53,ZONEHVAC:IDEALLOADSAIRSYSTEM,ZONE HVAC IDEAL LOADS AIR SYSTEM 18,Inlet,1
 Non-Parent Node Connection,ZONE HVAC IDEAL LOADS AIR SYSTEM 18 OUTDOOR AIR INLET NODE,ZONEHVAC:IDEALLOADSAIRSYSTEM,ZONE HVAC IDEAL LOADS AIR SYSTEM 18,Outlet,1
 Non-Parent Node Connection,ZONE HVAC IDEAL LOADS AIR SYSTEM 18 OUTDOOR AIR INLET NODE,OUTDOORAIR:NODE,OutdoorAir:Node,OutdoorAir,19
 Non-Parent Node Connection,NODE 57,ZONEHVAC:IDEALLOADSAIRSYSTEM,ZONE HVAC IDEAL LOADS AIR SYSTEM 19,Outlet,1
 Non-Parent Node Connection,NODE 56,ZONEHVAC:IDEALLOADSAIRSYSTEM,ZONE HVAC IDEAL LOADS AIR SYSTEM 19,Inlet,1
 Non-Parent Node Connection,ZONE HVAC IDEAL LOADS AIR SYSTEM 19 OUTDOOR AIR INLET NODE,ZONEHVAC:IDEALLOADSAIRSYSTEM,ZONE HVAC IDEAL LOADS AIR SYSTEM 19,Outlet,1
 Non-Parent Node Connection,ZONE HVAC IDEAL LOADS AIR SYSTEM 19 OUTDOOR AIR INLET NODE,OUTDOORAIR:NODE,OutdoorAir:Node,OutdoorAir,20
 Non-Parent Node Connection,NODE 60,ZONEHVAC:IDEALLOADSAIRSYSTEM,ZONE HVAC IDEAL LOADS AIR SYSTEM 20,Outlet,1
 Non-Parent Node Connection,NODE 59,ZONEHVAC:IDEALLOADSAIRSYSTEM,ZONE HVAC IDEAL LOADS AIR SYSTEM 20,Inlet,1
 Non-Parent Node Connection,ZONE HVAC IDEAL LOADS AIR SYSTEM 20 OUTDOOR AIR INLET NODE,ZONEHVAC:IDEALLOADSAIRSYSTEM,ZONE HVAC IDEAL LOADS AIR SYSTEM 20,Outlet,1
 Non-Parent Node Connection,ZONE HVAC IDEAL LOADS AIR SYSTEM 20 OUTDOOR AIR INLET NODE,OUTDOORAIR:NODE,OutdoorAir:Node,OutdoorAir,21
 Non-Parent Node Connection,NODE 63,ZONEHVAC:IDEALLOADSAIRSYSTEM,ZONE HVAC IDEAL LOADS AIR SYSTEM 21,Outlet,1
 Non-Parent Node Connection,NODE 62,ZONEHVAC:IDEALLOADSAIRSYSTEM,ZONE HVAC IDEAL LOADS AIR SYSTEM 21,Inlet,1
 Non-Parent Node Connection,ZONE HVAC IDEAL LOADS AIR SYSTEM 21 OUTDOOR AIR INLET NODE,ZONEHVAC:IDEALLOADSAIRSYSTEM,ZONE HVAC IDEAL LOADS AIR SYSTEM 21,Outlet,1
 Non-Parent Node Connection,ZONE HVAC IDEAL LOADS AIR SYSTEM 21 OUTDOOR AIR INLET NODE,OUTDOORAIR:NODE,OutdoorAir:Node,OutdoorAir,22
 Non-Parent Node Connection,NODE 66,ZONEHVAC:IDEALLOADSAIRSYSTEM,ZONE HVAC IDEAL LOADS AIR SYSTEM 22,Outlet,1
 Non-Parent Node Connection,NODE 65,ZONEHVAC:IDEALLOADSAIRSYSTEM,ZONE HVAC IDEAL LOADS AIR SYSTEM 22,Inlet,1
 Non-Parent Node Connection,ZONE HVAC IDEAL LOADS AIR SYSTEM 22 OUTDOOR AIR INLET NODE,ZONEHVAC:IDEALLOADSAIRSYSTEM,ZONE HVAC IDEAL LOADS AIR SYSTEM 22,Outlet,1
 Non-Parent Node Connection,ZONE HVAC IDEAL LOADS AIR SYSTEM 22 OUTDOOR AIR INLET NODE,OUTDOORAIR:NODE,OutdoorAir:Node,OutdoorAir,23
 Non-Parent Node Connection,NODE 69,ZONEHVAC:IDEALLOADSAIRSYSTEM,ZONE HVAC IDEAL LOADS AIR SYSTEM 23,Outlet,1
 Non-Parent Node Connection,NODE 68,ZONEHVAC:IDEALLOADSAIRSYSTEM,ZONE HVAC IDEAL LOADS AIR SYSTEM 23,Inlet,1
 Non-Parent Node Connection,ZONE HVAC IDEAL LOADS AIR SYSTEM 23 OUTDOOR AIR INLET NODE,ZONEHVAC:IDEALLOADSAIRSYSTEM,ZONE HVAC IDEAL LOADS AIR SYSTEM 23,Outlet,1
 Non-Parent Node Connection,ZONE HVAC IDEAL LOADS AIR SYSTEM 23 OUTDOOR AIR INLET NODE,OUTDOORAIR:NODE,OutdoorAir:Node,OutdoorAir,24
 Non-Parent Node Connection,NODE 72,ZONEHVAC:IDEALLOADSAIRSYSTEM,ZONE HVAC IDEAL LOADS AIR SYSTEM 24,Outlet,1
 Non-Parent Node Connection,NODE 71,ZONEHVAC:IDEALLOADSAIRSYSTEM,ZONE HVAC IDEAL LOADS AIR SYSTEM 24,Inlet,1
 Non-Parent Node Connection,ZONE HVAC IDEAL LOADS AIR SYSTEM 24 OUTDOOR AIR INLET NODE,ZONEHVAC:IDEALLOADSAIRSYSTEM,ZONE HVAC IDEAL LOADS AIR SYSTEM 24,Outlet,1
 Non-Parent Node Connection,ZONE HVAC IDEAL LOADS AIR SYSTEM 24 OUTDOOR AIR INLET NODE,OUTDOORAIR:NODE,OutdoorAir:Node,OutdoorAir,25
 Non-Parent Node Connection,NODE 75,ZONEHVAC:IDEALLOADSAIRSYSTEM,ZONE HVAC IDEAL LOADS AIR SYSTEM 25,Outlet,1
 Non-Parent Node Connection,NODE 74,ZONEHVAC:IDEALLOADSAIRSYSTEM,ZONE HVAC IDEAL LOADS AIR SYSTEM 25,Inlet,1
 Non-Parent Node Connection,ZONE HVAC IDEAL LOADS AIR SYSTEM 25 OUTDOOR AIR INLET NODE,ZONEHVAC:IDEALLOADSAIRSYSTEM,ZONE HVAC IDEAL LOADS AIR SYSTEM 25,Outlet,1
 Non-Parent Node Connection,ZONE HVAC IDEAL LOADS AIR SYSTEM 25 OUTDOOR AIR INLET NODE,OUTDOORAIR:NODE,OutdoorAir:Node,OutdoorAir,26
 Non-Parent Node Connection,NODE 78,ZONEHVAC:IDEALLOADSAIRSYSTEM,ZONE HVAC IDEAL LOADS AIR SYSTEM 26,Outlet,1
 Non-Parent Node Connection,NODE 77,ZONEHVAC:IDEALLOADSAIRSYSTEM,ZONE HVAC IDEAL LOADS AIR SYSTEM 26,Inlet,1
 Non-Parent Node Connection,ZONE HVAC IDEAL LOADS AIR SYSTEM 26 OUTDOOR AIR INLET NODE,ZONEHVAC:IDEALLOADSAIRSYSTEM,ZONE HVAC IDEAL LOADS AIR SYSTEM 26,Outlet,1
 Non-Parent Node Connection,ZONE HVAC IDEAL LOADS AIR SYSTEM 26 OUTDOOR AIR INLET NODE,OUTDOORAIR:NODE,OutdoorAir:Node,OutdoorAir,27
 Non-Parent Node Connection,NODE 81,ZONEHVAC:IDEALLOADSAIRSYSTEM,ZONE HVAC IDEAL LOADS AIR SYSTEM 27,Outlet,1
 Non-Parent Node Connection,NODE 80,ZONEHVAC:IDEALLOADSAIRSYSTEM,ZONE HVAC IDEAL LOADS AIR SYSTEM 27,Inlet,1
 Non-Parent Node Connection,ZONE HVAC IDEAL LOADS AIR SYSTEM 27 OUTDOOR AIR INLET NODE,ZONEHVAC:IDEALLOADSAIRSYSTEM,ZONE HVAC IDEAL LOADS AIR SYSTEM 27,Outlet,1
 Non-Parent Node Connection,ZONE HVAC IDEAL LOADS AIR SYSTEM 27 OUTDOOR AIR INLET NODE,OUTDOORAIR:NODE,OutdoorAir:Node,OutdoorAir,28
 Non-Parent Node Connection,NODE 84,ZONEHVAC:IDEALLOADSAIRSYSTEM,ZONE HVAC IDEAL LOADS AIR SYSTEM 28,Outlet,1
 Non-Parent Node Connection,NODE 83,ZONEHVAC:IDEALLOADSAIRSYSTEM,ZONE HVAC IDEAL LOADS AIR SYSTEM 28,Inlet,1
 Non-Parent Node Connection,ZONE HVAC IDEAL LOADS AIR SYSTEM 28 OUTDOOR AIR INLET NODE,ZONEHVAC:IDEALLOADSAIRSYSTEM,ZONE HVAC IDEAL LOADS AIR SYSTEM 28,Outlet,1
 Non-Parent Node Connection,ZONE HVAC IDEAL LOADS AIR SYSTEM 28 OUTDOOR AIR INLET NODE,OUTDOORAIR:NODE,OutdoorAir:Node,OutdoorAir,29
 Non-Parent Node Connection,NODE 87,ZONEHVAC:IDEALLOADSAIRSYSTEM,ZONE HVAC IDEAL LOADS AIR SYSTEM 29,Outlet,1
 Non-Parent Node Connection,NODE 86,ZONEHVAC:IDEALLOADSAIRSYSTEM,ZONE HVAC IDEAL LOADS AIR SYSTEM 29,Inlet,1
 Non-Parent Node Connection,ZONE HVAC IDEAL LOADS AIR SYSTEM 29 OUTDOOR AIR INLET NODE,ZONEHVAC:IDEALLOADSAIRSYSTEM,ZONE HVAC IDEAL LOADS AIR SYSTEM 29,Outlet,1
 Non-Parent Node Connection,ZONE HVAC IDEAL LOADS AIR SYSTEM 29 OUTDOOR AIR INLET NODE,OUTDOORAIR:NODE,OutdoorAir:Node,OutdoorAir,30
 Non-Parent Node Connection,NODE 90,ZONEHVAC:IDEALLOADSAIRSYSTEM,ZONE HVAC IDEAL LOADS AIR SYSTEM 30,Outlet,1
 Non-Parent Node Connection,NODE 89,ZONEHVAC:IDEALLOADSAIRSYSTEM,ZONE HVAC IDEAL LOADS AIR SYSTEM 30,Inlet,1
 Non-Parent Node Connection,ZONE HVAC IDEAL LOADS AIR SYSTEM 30 OUTDOOR AIR INLET NODE,ZONEHVAC:IDEALLOADSAIRSYSTEM,ZONE HVAC IDEAL LOADS AIR SYSTEM 30,Outlet,1
 Non-Parent Node Connection,ZONE HVAC IDEAL LOADS AIR SYSTEM 30 OUTDOOR AIR INLET NODE,OUTDOORAIR:NODE,OutdoorAir:Node,OutdoorAir,31
 Non-Parent Node Connection,NODE 93,ZONEHVAC:IDEALLOADSAIRSYSTEM,ZONE HVAC IDEAL LOADS AIR SYSTEM 31,Outlet,1
 Non-Parent Node Connection,NODE 92,ZONEHVAC:IDEALLOADSAIRSYSTEM,ZONE HVAC IDEAL LOADS AIR SYSTEM 31,Inlet,1
 Non-Parent Node Connection,ZONE HVAC IDEAL LOADS AIR SYSTEM 31 OUTDOOR AIR INLET NODE,ZONEHVAC:IDEALLOADSAIRSYSTEM,ZONE HVAC IDEAL LOADS AIR SYSTEM 31,Outlet,1
 Non-Parent Node Connection,ZONE HVAC IDEAL LOADS AIR SYSTEM 31 OUTDOOR AIR INLET NODE,OUTDOORAIR:NODE,OutdoorAir:Node,OutdoorAir,32
 Non-Parent Node Connection,NODE 96,ZONEHVAC:IDEALLOADSAIRSYSTEM,ZONE HVAC IDEAL LOADS AIR SYSTEM 32,Outlet,1
 Non-Parent Node Connection,NODE 95,ZONEHVAC:IDEALLOADSAIRSYSTEM,ZONE HVAC IDEAL LOADS AIR SYSTEM 32,Inlet,1
 Non-Parent Node Connection,ZONE HVAC IDEAL LOADS AIR SYSTEM 32 OUTDOOR AIR INLET NODE,ZONEHVAC:IDEALLOADSAIRSYSTEM,ZONE HVAC IDEAL LOADS AIR SYSTEM 32,Outlet,1
 Non-Parent Node Connection,ZONE HVAC IDEAL LOADS AIR SYSTEM 32 OUTDOOR AIR INLET NODE,OUTDOORAIR:NODE,OutdoorAir:Node,OutdoorAir,33
 Non-Parent Node Connection,NODE 99,ZONEHVAC:IDEALLOADSAIRSYSTEM,ZONE HVAC IDEAL LOADS AIR SYSTEM 33,Outlet,1
 Non-Parent Node Connection,NODE 98,ZONEHVAC:IDEALLOADSAIRSYSTEM,ZONE HVAC IDEAL LOADS AIR SYSTEM 33,Inlet,1
 Non-Parent Node Connection,ZONE HVAC IDEAL LOADS AIR SYSTEM 33 OUTDOOR AIR INLET NODE,ZONEHVAC:IDEALLOADSAIRSYSTEM,ZONE HVAC IDEAL LOADS AIR SYSTEM 33,Outlet,1
 Non-Parent Node Connection,ZONE HVAC IDEAL LOADS AIR SYSTEM 33 OUTDOOR AIR INLET NODE,OUTDOORAIR:NODE,OutdoorAir:Node,OutdoorAir,34
 Non-Parent Node Connection,NODE 102,ZONEHVAC:IDEALLOADSAIRSYSTEM,ZONE HVAC IDEAL LOADS AIR SYSTEM 34,Outlet,1
 Non-Parent Node Connection,NODE 101,ZONEHVAC:IDEALLOADSAIRSYSTEM,ZONE HVAC IDEAL LOADS AIR SYSTEM 34,Inlet,1
 Non-Parent Node Connection,ZONE HVAC IDEAL LOADS AIR SYSTEM 34 OUTDOOR AIR INLET NODE,ZONEHVAC:IDEALLOADSAIRSYSTEM,ZONE HVAC IDEAL LOADS AIR SYSTEM 34,Outlet,1
 Non-Parent Node Connection,ZONE HVAC IDEAL LOADS AIR SYSTEM 34 OUTDOOR AIR INLET NODE,OUTDOORAIR:NODE,OutdoorAir:Node,OutdoorAir,35
 Non-Parent Node Connection,NODE 105,ZONEHVAC:IDEALLOADSAIRSYSTEM,ZONE HVAC IDEAL LOADS AIR SYSTEM 35,Outlet,1
 Non-Parent Node Connection,NODE 104,ZONEHVAC:IDEALLOADSAIRSYSTEM,ZONE HVAC IDEAL LOADS AIR SYSTEM 35,Inlet,1
 Non-Parent Node Connection,ZONE HVAC IDEAL LOADS AIR SYSTEM 35 OUTDOOR AIR INLET NODE,ZONEHVAC:IDEALLOADSAIRSYSTEM,ZONE HVAC IDEAL LOADS AIR SYSTEM 35,Outlet,1
 Non-Parent Node Connection,ZONE HVAC IDEAL LOADS AIR SYSTEM 35 OUTDOOR AIR INLET NODE,OUTDOORAIR:NODE,OutdoorAir:Node,OutdoorAir,36
 Non-Parent Node Connection,NODE 108,ZONEHVAC:IDEALLOADSAIRSYSTEM,ZONE HVAC IDEAL LOADS AIR SYSTEM 36,Outlet,1
 Non-Parent Node Connection,NODE 107,ZONEHVAC:IDEALLOADSAIRSYSTEM,ZONE HVAC IDEAL LOADS AIR SYSTEM 36,Inlet,1
 Non-Parent Node Connection,ZONE HVAC IDEAL LOADS AIR SYSTEM 36 OUTDOOR AIR INLET NODE,ZONEHVAC:IDEALLOADSAIRSYSTEM,ZONE HVAC IDEAL LOADS AIR SYSTEM 36,Outlet,1
 Non-Parent Node Connection,ZONE HVAC IDEAL LOADS AIR SYSTEM 36 OUTDOOR AIR INLET NODE,OUTDOORAIR:NODE,OutdoorAir:Node,OutdoorAir,37
 Non-Parent Node Connection,NODE 111,ZONEHVAC:IDEALLOADSAIRSYSTEM,ZONE HVAC IDEAL LOADS AIR SYSTEM 37,Outlet,1
 Non-Parent Node Connection,NODE 110,ZONEHVAC:IDEALLOADSAIRSYSTEM,ZONE HVAC IDEAL LOADS AIR SYSTEM 37,Inlet,1
 Non-Parent Node Connection,ZONE HVAC IDEAL LOADS AIR SYSTEM 37 OUTDOOR AIR INLET NODE,ZONEHVAC:IDEALLOADSAIRSYSTEM,ZONE HVAC IDEAL LOADS AIR SYSTEM 37,Outlet,1
 Non-Parent Node Connection,ZONE HVAC IDEAL LOADS AIR SYSTEM 37 OUTDOOR AIR INLET NODE,OUTDOORAIR:NODE,OutdoorAir:Node,OutdoorAir,38
 Non-Parent Node Connection,NODE 114,ZONEHVAC:IDEALLOADSAIRSYSTEM,ZONE HVAC IDEAL LOADS AIR SYSTEM 38,Outlet,1
 Non-Parent Node Connection,NODE 113,ZONEHVAC:IDEALLOADSAIRSYSTEM,ZONE HVAC IDEAL LOADS AIR SYSTEM 38,Inlet,1
 Non-Parent Node Connection,ZONE HVAC IDEAL LOADS AIR SYSTEM 38 OUTDOOR AIR INLET NODE,ZONEHVAC:IDEALLOADSAIRSYSTEM,ZONE HVAC IDEAL LOADS AIR SYSTEM 38,Outlet,1
 Non-Parent Node Connection,ZONE HVAC IDEAL LOADS AIR SYSTEM 38 OUTDOOR AIR INLET NODE,OUTDOORAIR:NODE,OutdoorAir:Node,OutdoorAir,39
 Non-Parent Node Connection,NODE 117,ZONEHVAC:IDEALLOADSAIRSYSTEM,ZONE HVAC IDEAL LOADS AIR SYSTEM 39,Outlet,1
 Non-Parent Node Connection,NODE 116,ZONEHVAC:IDEALLOADSAIRSYSTEM,ZONE HVAC IDEAL LOADS AIR SYSTEM 39,Inlet,1
 Non-Parent Node Connection,ZONE HVAC IDEAL LOADS AIR SYSTEM 39 OUTDOOR AIR INLET NODE,ZONEHVAC:IDEALLOADSAIRSYSTEM,ZONE HVAC IDEAL LOADS AIR SYSTEM 39,Outlet,1
 Non-Parent Node Connection,ZONE HVAC IDEAL LOADS AIR SYSTEM 39 OUTDOOR AIR INLET NODE,OUTDOORAIR:NODE,OutdoorAir:Node,OutdoorAir,40
 Non-Parent Node Connection,NODE 120,ZONEHVAC:IDEALLOADSAIRSYSTEM,ZONE HVAC IDEAL LOADS AIR SYSTEM 40,Outlet,1
 Non-Parent Node Connection,NODE 119,ZONEHVAC:IDEALLOADSAIRSYSTEM,ZONE HVAC IDEAL LOADS AIR SYSTEM 40,Inlet,1
 Non-Parent Node Connection,ZONE HVAC IDEAL LOADS AIR SYSTEM 40 OUTDOOR AIR INLET NODE,ZONEHVAC:IDEALLOADSAIRSYSTEM,ZONE HVAC IDEAL LOADS AIR SYSTEM 40,Outlet,1
 Non-Parent Node Connection,ZONE HVAC IDEAL LOADS AIR SYSTEM 40 OUTDOOR AIR INLET NODE,OUTDOORAIR:NODE,OutdoorAir:Node,OutdoorAir,41
 Non-Parent Node Connection,NODE 123,ZONEHVAC:IDEALLOADSAIRSYSTEM,ZONE HVAC IDEAL LOADS AIR SYSTEM 41,Outlet,1
 Non-Parent Node Connection,NODE 122,ZONEHVAC:IDEALLOADSAIRSYSTEM,ZONE HVAC IDEAL LOADS AIR SYSTEM 41,Inlet,1
 Non-Parent Node Connection,ZONE HVAC IDEAL LOADS AIR SYSTEM 41 OUTDOOR AIR INLET NODE,ZONEHVAC:IDEALLOADSAIRSYSTEM,ZONE HVAC IDEAL LOADS AIR SYSTEM 41,Outlet,1
 Non-Parent Node Connection,ZONE HVAC IDEAL LOADS AIR SYSTEM 41 OUTDOOR AIR INLET NODE,OUTDOORAIR:NODE,OutdoorAir:Node,OutdoorAir,42
 Non-Parent Node Connection,NODE 126,ZONEHVAC:IDEALLOADSAIRSYSTEM,ZONE HVAC IDEAL LOADS AIR SYSTEM 42,Outlet,1
 Non-Parent Node Connection,NODE 125,ZONEHVAC:IDEALLOADSAIRSYSTEM,ZONE HVAC IDEAL LOADS AIR SYSTEM 42,Inlet,1
 Non-Parent Node Connection,ZONE HVAC IDEAL LOADS AIR SYSTEM 42 OUTDOOR AIR INLET NODE,ZONEHVAC:IDEALLOADSAIRSYSTEM,ZONE HVAC IDEAL LOADS AIR SYSTEM 42,Outlet,1
 Non-Parent Node Connection,ZONE HVAC IDEAL LOADS AIR SYSTEM 42 OUTDOOR AIR INLET NODE,OUTDOORAIR:NODE,OutdoorAir:Node,OutdoorAir,43
 Non-Parent Node Connection,NODE 129,ZONEHVAC:IDEALLOADSAIRSYSTEM,ZONE HVAC IDEAL LOADS AIR SYSTEM 43,Outlet,1
 Non-Parent Node Connection,NODE 128,ZONEHVAC:IDEALLOADSAIRSYSTEM,ZONE HVAC IDEAL LOADS AIR SYSTEM 43,Inlet,1
 Non-Parent Node Connection,ZONE HVAC IDEAL LOADS AIR SYSTEM 43 OUTDOOR AIR INLET NODE,ZONEHVAC:IDEALLOADSAIRSYSTEM,ZONE HVAC IDEAL LOADS AIR SYSTEM 43,Outlet,1
 Non-Parent Node Connection,ZONE HVAC IDEAL LOADS AIR SYSTEM 43 OUTDOOR AIR INLET NODE,OUTDOORAIR:NODE,OutdoorAir:Node,OutdoorAir,44
 Non-Parent Node Connection,NODE 132,ZONEHVAC:IDEALLOADSAIRSYSTEM,ZONE HVAC IDEAL LOADS AIR SYSTEM 44,Outlet,1
 Non-Parent Node Connection,NODE 131,ZONEHVAC:IDEALLOADSAIRSYSTEM,ZONE HVAC IDEAL LOADS AIR SYSTEM 44,Inlet,1
 Non-Parent Node Connection,ZONE HVAC IDEAL LOADS AIR SYSTEM 44 OUTDOOR AIR INLET NODE,ZONEHVAC:IDEALLOADSAIRSYSTEM,ZONE HVAC IDEAL LOADS AIR SYSTEM 44,Outlet,1
 Non-Parent Node Connection,ZONE HVAC IDEAL LOADS AIR SYSTEM 44 OUTDOOR AIR INLET NODE,OUTDOORAIR:NODE,OutdoorAir:Node,OutdoorAir,45
 Non-Parent Node Connection,NODE 135,ZONEHVAC:IDEALLOADSAIRSYSTEM,ZONE HVAC IDEAL LOADS AIR SYSTEM 45,Outlet,1
 Non-Parent Node Connection,NODE 134,ZONEHVAC:IDEALLOADSAIRSYSTEM,ZONE HVAC IDEAL LOADS AIR SYSTEM 45,Inlet,1
 Non-Parent Node Connection,ZONE HVAC IDEAL LOADS AIR SYSTEM 45 OUTDOOR AIR INLET NODE,ZONEHVAC:IDEALLOADSAIRSYSTEM,ZONE HVAC IDEAL LOADS AIR SYSTEM 45,Outlet,1
 Non-Parent Node Connection,ZONE HVAC IDEAL LOADS AIR SYSTEM 45 OUTDOOR AIR INLET NODE,OUTDOORAIR:NODE,OutdoorAir:Node,OutdoorAir,46
 Non-Parent Node Connection,NODE 138,ZONEHVAC:IDEALLOADSAIRSYSTEM,ZONE HVAC IDEAL LOADS AIR SYSTEM 46,Outlet,1
 Non-Parent Node Connection,NODE 137,ZONEHVAC:IDEALLOADSAIRSYSTEM,ZONE HVAC IDEAL LOADS AIR SYSTEM 46,Inlet,1
 Non-Parent Node Connection,ZONE HVAC IDEAL LOADS AIR SYSTEM 46 OUTDOOR AIR INLET NODE,ZONEHVAC:IDEALLOADSAIRSYSTEM,ZONE HVAC IDEAL LOADS AIR SYSTEM 46,Outlet,1
 Non-Parent Node Connection,ZONE HVAC IDEAL LOADS AIR SYSTEM 46 OUTDOOR AIR INLET NODE,OUTDOORAIR:NODE,OutdoorAir:Node,OutdoorAir,47
 Non-Parent Node Connection,NODE 141,ZONEHVAC:IDEALLOADSAIRSYSTEM,ZONE HVAC IDEAL LOADS AIR SYSTEM 47,Outlet,1
 Non-Parent Node Connection,NODE 140,ZONEHVAC:IDEALLOADSAIRSYSTEM,ZONE HVAC IDEAL LOADS AIR SYSTEM 47,Inlet,1
 Non-Parent Node Connection,ZONE HVAC IDEAL LOADS AIR SYSTEM 47 OUTDOOR AIR INLET NODE,ZONEHVAC:IDEALLOADSAIRSYSTEM,ZONE HVAC IDEAL LOADS AIR SYSTEM 47,Outlet,1
 Non-Parent Node Connection,ZONE HVAC IDEAL LOADS AIR SYSTEM 47 OUTDOOR AIR INLET NODE,OUTDOORAIR:NODE,OutdoorAir:Node,OutdoorAir,48
 Non-Parent Node Connection,NODE 144,ZONEHVAC:IDEALLOADSAIRSYSTEM,ZONE HVAC IDEAL LOADS AIR SYSTEM 48,Outlet,1
 Non-Parent Node Connection,NODE 143,ZONEHVAC:IDEALLOADSAIRSYSTEM,ZONE HVAC IDEAL LOADS AIR SYSTEM 48,Inlet,1
 Non-Parent Node Connection,ZONE HVAC IDEAL LOADS AIR SYSTEM 48 OUTDOOR AIR INLET NODE,ZONEHVAC:IDEALLOADSAIRSYSTEM,ZONE HVAC IDEAL LOADS AIR SYSTEM 48,Outlet,1
 Non-Parent Node Connection,ZONE HVAC IDEAL LOADS AIR SYSTEM 48 OUTDOOR AIR INLET NODE,OUTDOORAIR:NODE,OutdoorAir:Node,OutdoorAir,49
 Non-Parent Node Connection,NODE 147,ZONEHVAC:IDEALLOADSAIRSYSTEM,ZONE HVAC IDEAL LOADS AIR SYSTEM 49,Outlet,1
 Non-Parent Node Connection,NODE 146,ZONEHVAC:IDEALLOADSAIRSYSTEM,ZONE HVAC IDEAL LOADS AIR SYSTEM 49,Inlet,1
 Non-Parent Node Connection,ZONE HVAC IDEAL LOADS AIR SYSTEM 49 OUTDOOR AIR INLET NODE,ZONEHVAC:IDEALLOADSAIRSYSTEM,ZONE HVAC IDEAL LOADS AIR SYSTEM 49,Outlet,1
 Non-Parent Node Connection,ZONE HVAC IDEAL LOADS AIR SYSTEM 49 OUTDOOR AIR INLET NODE,OUTDOORAIR:NODE,OutdoorAir:Node,OutdoorAir,50
 Non-Parent Node Connection,NODE 150,ZONEHVAC:IDEALLOADSAIRSYSTEM,ZONE HVAC IDEAL LOADS AIR SYSTEM 50,Outlet,1
 Non-Parent Node Connection,NODE 149,ZONEHVAC:IDEALLOADSAIRSYSTEM,ZONE HVAC IDEAL LOADS AIR SYSTEM 50,Inlet,1
 Non-Parent Node Connection,ZONE HVAC IDEAL LOADS AIR SYSTEM 50 OUTDOOR AIR INLET NODE,ZONEHVAC:IDEALLOADSAIRSYSTEM,ZONE HVAC IDEAL LOADS AIR SYSTEM 50,Outlet,1
 Non-Parent Node Connection,ZONE HVAC IDEAL LOADS AIR SYSTEM 50 OUTDOOR AIR INLET NODE,OUTDOORAIR:NODE,OutdoorAir:Node,OutdoorAir,51
 Non-Parent Node Connection,NODE 153,ZONEHVAC:IDEALLOADSAIRSYSTEM,ZONE HVAC IDEAL LOADS AIR SYSTEM 51,Outlet,1
 Non-Parent Node Connection,NODE 152,ZONEHVAC:IDEALLOADSAIRSYSTEM,ZONE HVAC IDEAL LOADS AIR SYSTEM 51,Inlet,1
 Non-Parent Node Connection,ZONE HVAC IDEAL LOADS AIR SYSTEM 51 OUTDOOR AIR INLET NODE,ZONEHVAC:IDEALLOADSAIRSYSTEM,ZONE HVAC IDEAL LOADS AIR SYSTEM 51,Outlet,1
 Non-Parent Node Connection,ZONE HVAC IDEAL LOADS AIR SYSTEM 51 OUTDOOR AIR INLET NODE,OUTDOORAIR:NODE,OutdoorAir:Node,OutdoorAir,52
 Non-Parent Node Connection,NODE 156,ZONEHVAC:IDEALLOADSAIRSYSTEM,ZONE HVAC IDEAL LOADS AIR SYSTEM 52,Outlet,1
 Non-Parent Node Connection,NODE 155,ZONEHVAC:IDEALLOADSAIRSYSTEM,ZONE HVAC IDEAL LOADS AIR SYSTEM 52,Inlet,1
 Non-Parent Node Connection,ZONE HVAC IDEAL LOADS AIR SYSTEM 52 OUTDOOR AIR INLET NODE,ZONEHVAC:IDEALLOADSAIRSYSTEM,ZONE HVAC IDEAL LOADS AIR SYSTEM 52,Outlet,1
 Non-Parent Node Connection,ZONE HVAC IDEAL LOADS AIR SYSTEM 52 OUTDOOR AIR INLET NODE,OUTDOORAIR:NODE,OutdoorAir:Node,OutdoorAir,53
 Non-Parent Node Connection,NODE 159,ZONEHVAC:IDEALLOADSAIRSYSTEM,ZONE HVAC IDEAL LOADS AIR SYSTEM 53,Outlet,1
 Non-Parent Node Connection,NODE 158,ZONEHVAC:IDEALLOADSAIRSYSTEM,ZONE HVAC IDEAL LOADS AIR SYSTEM 53,Inlet,1
 Non-Parent Node Connection,ZONE HVAC IDEAL LOADS AIR SYSTEM 53 OUTDOOR AIR INLET NODE,ZONEHVAC:IDEALLOADSAIRSYSTEM,ZONE HVAC IDEAL LOADS AIR SYSTEM 53,Outlet,1
 Non-Parent Node Connection,ZONE HVAC IDEAL LOADS AIR SYSTEM 53 OUTDOOR AIR INLET NODE,OUTDOORAIR:NODE,OutdoorAir:Node,OutdoorAir,54
 Non-Parent Node Connection,NODE 162,ZONEHVAC:IDEALLOADSAIRSYSTEM,ZONE HVAC IDEAL LOADS AIR SYSTEM 54,Outlet,1
 Non-Parent Node Connection,NODE 161,ZONEHVAC:IDEALLOADSAIRSYSTEM,ZONE HVAC IDEAL LOADS AIR SYSTEM 54,Inlet,1
 Non-Parent Node Connection,ZONE HVAC IDEAL LOADS AIR SYSTEM 54 OUTDOOR AIR INLET NODE,ZONEHVAC:IDEALLOADSAIRSYSTEM,ZONE HVAC IDEAL LOADS AIR SYSTEM 54,Outlet,1
 Non-Parent Node Connection,ZONE HVAC IDEAL LOADS AIR SYSTEM 54 OUTDOOR AIR INLET NODE,OUTDOORAIR:NODE,OutdoorAir:Node,OutdoorAir,55
 Non-Parent Node Connection,NODE 165,ZONEHVAC:IDEALLOADSAIRSYSTEM,ZONE HVAC IDEAL LOADS AIR SYSTEM 55,Outlet,1
 Non-Parent Node Connection,NODE 164,ZONEHVAC:IDEALLOADSAIRSYSTEM,ZONE HVAC IDEAL LOADS AIR SYSTEM 55,Inlet,1
 Non-Parent Node Connection,ZONE HVAC IDEAL LOADS AIR SYSTEM 55 OUTDOOR AIR INLET NODE,ZONEHVAC:IDEALLOADSAIRSYSTEM,ZONE HVAC IDEAL LOADS AIR SYSTEM 55,Outlet,1
 Non-Parent Node Connection,ZONE HVAC IDEAL LOADS AIR SYSTEM 55 OUTDOOR AIR INLET NODE,OUTDOORAIR:NODE,OutdoorAir:Node,OutdoorAir,56
