! Program Version,EnergyPlus, Version 8.9.0-eba93e8e1b, YMD=2018.09.18 16:56,
! Output:Meter Objects (applicable to this run)
Output:Meter,Electricity:Facility,hourly; !- [J]
Output:Meter:Cumulative,Electricity:Facility,hourly; !- [J]
Output:Meter,Electricity:Building,hourly; !- [J]
Output:Meter:Cumulative,Electricity:Building,hourly; !- [J]
Output:Meter,Electricity:Zone:CORRIDOR_FLR_1 ZN,hourly; !- [J]
Output:Meter:Cumulative,Electricity:Zone:CORRIDOR_FLR_1 ZN,hourly; !- [J]
Output:Meter,InteriorLights:Electricity,hourly; !- [J]
Output:Meter:Cumulative,InteriorLights:Electricity,hourly; !- [J]
Output:Meter,InteriorLights:Electricity:Zone:CORRIDOR_FLR_1 ZN,hourly; !- [J]
Output:Meter:Cumulative,InteriorLights:Electricity:Zone:CORRIDOR_FLR_1 ZN,hourly; !- [J]
Output:Meter,General:InteriorLights:Electricity,hourly; !- [J]
Output:Meter:Cumulative,General:InteriorLights:Electricity,hourly; !- [J]
Output:Meter,Electricity:Zone:CORRIDOR_FLR_2 ZN,hourly; !- [J]
Output:Meter:Cumulative,Electricity:Zone:CORRIDOR_FLR_2 ZN,hourly; !- [J]
Output:Meter,InteriorLights:Electricity:Zone:CORRIDOR_FLR_2 ZN,hourly; !- [J]
Output:Meter:Cumulative,InteriorLights:Electricity:Zone:CORRIDOR_FLR_2 ZN,hourly; !- [J]
Output:Meter,Electricity:Zone:CORRIDOR_FLR_5 ZN,hourly; !- [J]
Output:Meter:Cumulative,Electricity:Zone:CORRIDOR_FLR_5 ZN,hourly; !- [J]
Output:Meter,InteriorLights:Electricity:Zone:CORRIDOR_FLR_5 ZN,hourly; !- [J]
Output:Meter:Cumulative,InteriorLights:Electricity:Zone:CORRIDOR_FLR_5 ZN,hourly; !- [J]
Output:Meter,Electricity:Zone:CORRIDOR_NW_FLR_3 ZN,hourly; !- [J]
Output:Meter:Cumulative,Electricity:Zone:CORRIDOR_NW_FLR_3 ZN,hourly; !- [J]
Output:Meter,InteriorLights:Electricity:Zone:CORRIDOR_NW_FLR_3 ZN,hourly; !- [J]
Output:Meter:Cumulative,InteriorLights:Electricity:Zone:CORRIDOR_NW_FLR_3 ZN,hourly; !- [J]
Output:Meter,Electricity:Zone:CORRIDOR_NW_FLR_4 ZN,hourly; !- [J]
Output:Meter:Cumulative,Electricity:Zone:CORRIDOR_NW_FLR_4 ZN,hourly; !- [J]
Output:Meter,InteriorLights:Electricity:Zone:CORRIDOR_NW_FLR_4 ZN,hourly; !- [J]
Output:Meter:Cumulative,InteriorLights:Electricity:Zone:CORRIDOR_NW_FLR_4 ZN,hourly; !- [J]
Output:Meter,Electricity:Zone:CORRIDOR_SE_FLR_3 ZN,hourly; !- [J]
Output:Meter:Cumulative,Electricity:Zone:CORRIDOR_SE_FLR_3 ZN,hourly; !- [J]
Output:Meter,InteriorLights:Electricity:Zone:CORRIDOR_SE_FLR_3 ZN,hourly; !- [J]
Output:Meter:Cumulative,InteriorLights:Electricity:Zone:CORRIDOR_SE_FLR_3 ZN,hourly; !- [J]
Output:Meter,Electricity:Zone:CORRIDOR_SE_FLR_4 ZN,hourly; !- [J]
Output:Meter:Cumulative,Electricity:Zone:CORRIDOR_SE_FLR_4 ZN,hourly; !- [J]
Output:Meter,InteriorLights:Electricity:Zone:CORRIDOR_SE_FLR_4 ZN,hourly; !- [J]
Output:Meter:Cumulative,InteriorLights:Electricity:Zone:CORRIDOR_SE_FLR_4 ZN,hourly; !- [J]
Output:Meter,Electricity:Zone:DINING_FLR_5 ZN,hourly; !- [J]
Output:Meter:Cumulative,Electricity:Zone:DINING_FLR_5 ZN,hourly; !- [J]
Output:Meter,InteriorLights:Electricity:Zone:DINING_FLR_5 ZN,hourly; !- [J]
Output:Meter:Cumulative,InteriorLights:Electricity:Zone:DINING_FLR_5 ZN,hourly; !- [J]
Output:Meter,Electricity:Zone:KITCHEN_FLR_5 ZN,hourly; !- [J]
Output:Meter:Cumulative,Electricity:Zone:KITCHEN_FLR_5 ZN,hourly; !- [J]
Output:Meter,InteriorLights:Electricity:Zone:KITCHEN_FLR_5 ZN,hourly; !- [J]
Output:Meter:Cumulative,InteriorLights:Electricity:Zone:KITCHEN_FLR_5 ZN,hourly; !- [J]
Output:Meter,Electricity:Zone:RADIOLOGY_FLR_4 ZN,hourly; !- [J]
Output:Meter:Cumulative,Electricity:Zone:RADIOLOGY_FLR_4 ZN,hourly; !- [J]
Output:Meter,InteriorLights:Electricity:Zone:RADIOLOGY_FLR_4 ZN,hourly; !- [J]
Output:Meter:Cumulative,InteriorLights:Electricity:Zone:RADIOLOGY_FLR_4 ZN,hourly; !- [J]
Output:Meter,Electricity:Zone:ER_NURSESTN_LOBBY_FLR_1 ZN,hourly; !- [J]
Output:Meter:Cumulative,Electricity:Zone:ER_NURSESTN_LOBBY_FLR_1 ZN,hourly; !- [J]
Output:Meter,InteriorLights:Electricity:Zone:ER_NURSESTN_LOBBY_FLR_1 ZN,hourly; !- [J]
Output:Meter:Cumulative,InteriorLights:Electricity:Zone:ER_NURSESTN_LOBBY_FLR_1 ZN,hourly; !- [J]
Output:Meter,Electricity:Zone:ICU_NURSESTN_LOBBY_FLR_2 ZN,hourly; !- [J]
Output:Meter:Cumulative,Electricity:Zone:ICU_NURSESTN_LOBBY_FLR_2 ZN,hourly; !- [J]
Output:Meter,InteriorLights:Electricity:Zone:ICU_NURSESTN_LOBBY_FLR_2 ZN,hourly; !- [J]
Output:Meter:Cumulative,InteriorLights:Electricity:Zone:ICU_NURSESTN_LOBBY_FLR_2 ZN,hourly; !- [J]
Output:Meter,Electricity:Zone:NURSESTN_LOBBY_FLR_3 ZN,hourly; !- [J]
Output:Meter:Cumulative,Electricity:Zone:NURSESTN_LOBBY_FLR_3 ZN,hourly; !- [J]
Output:Meter,InteriorLights:Electricity:Zone:NURSESTN_LOBBY_FLR_3 ZN,hourly; !- [J]
Output:Meter:Cumulative,InteriorLights:Electricity:Zone:NURSESTN_LOBBY_FLR_3 ZN,hourly; !- [J]
Output:Meter,Electricity:Zone:NURSESTN_LOBBY_FLR_4 ZN,hourly; !- [J]
Output:Meter:Cumulative,Electricity:Zone:NURSESTN_LOBBY_FLR_4 ZN,hourly; !- [J]
Output:Meter,InteriorLights:Electricity:Zone:NURSESTN_LOBBY_FLR_4 ZN,hourly; !- [J]
Output:Meter:Cumulative,InteriorLights:Electricity:Zone:NURSESTN_LOBBY_FLR_4 ZN,hourly; !- [J]
Output:Meter,Electricity:Zone:NURSESTN_LOBBY_FLR_5 ZN,hourly; !- [J]
Output:Meter:Cumulative,Electricity:Zone:NURSESTN_LOBBY_FLR_5 ZN,hourly; !- [J]
Output:Meter,InteriorLights:Electricity:Zone:NURSESTN_LOBBY_FLR_5 ZN,hourly; !- [J]
Output:Meter:Cumulative,InteriorLights:Electricity:Zone:NURSESTN_LOBBY_FLR_5 ZN,hourly; !- [J]
Output:Meter,Electricity:Zone:OR_NURSESTN_LOBBY_FLR_2 ZN,hourly; !- [J]
Output:Meter:Cumulative,Electricity:Zone:OR_NURSESTN_LOBBY_FLR_2 ZN,hourly; !- [J]
Output:Meter,InteriorLights:Electricity:Zone:OR_NURSESTN_LOBBY_FLR_2 ZN,hourly; !- [J]
Output:Meter:Cumulative,InteriorLights:Electricity:Zone:OR_NURSESTN_LOBBY_FLR_2 ZN,hourly; !- [J]
Output:Meter,Electricity:Zone:ER_EXAM1_MULT4_FLR_1 ZN,hourly; !- [J]
Output:Meter:Cumulative,Electricity:Zone:ER_EXAM1_MULT4_FLR_1 ZN,hourly; !- [J]
Output:Meter,InteriorLights:Electricity:Zone:ER_EXAM1_MULT4_FLR_1 ZN,hourly; !- [J]
Output:Meter:Cumulative,InteriorLights:Electricity:Zone:ER_EXAM1_MULT4_FLR_1 ZN,hourly; !- [J]
Output:Meter,Electricity:Zone:ER_EXAM3_MULT4_FLR_1 ZN,hourly; !- [J]
Output:Meter:Cumulative,Electricity:Zone:ER_EXAM3_MULT4_FLR_1 ZN,hourly; !- [J]
Output:Meter,InteriorLights:Electricity:Zone:ER_EXAM3_MULT4_FLR_1 ZN,hourly; !- [J]
Output:Meter:Cumulative,InteriorLights:Electricity:Zone:ER_EXAM3_MULT4_FLR_1 ZN,hourly; !- [J]
Output:Meter,Electricity:Zone:ER_TRAUMA1_FLR_1 ZN,hourly; !- [J]
Output:Meter:Cumulative,Electricity:Zone:ER_TRAUMA1_FLR_1 ZN,hourly; !- [J]
Output:Meter,InteriorLights:Electricity:Zone:ER_TRAUMA1_FLR_1 ZN,hourly; !- [J]
Output:Meter:Cumulative,InteriorLights:Electricity:Zone:ER_TRAUMA1_FLR_1 ZN,hourly; !- [J]
Output:Meter,Electricity:Zone:ER_TRAUMA2_FLR_1 ZN,hourly; !- [J]
Output:Meter:Cumulative,Electricity:Zone:ER_TRAUMA2_FLR_1 ZN,hourly; !- [J]
Output:Meter,InteriorLights:Electricity:Zone:ER_TRAUMA2_FLR_1 ZN,hourly; !- [J]
Output:Meter:Cumulative,InteriorLights:Electricity:Zone:ER_TRAUMA2_FLR_1 ZN,hourly; !- [J]
Output:Meter,Electricity:Zone:ER_TRIAGE_MULT4_FLR_1 ZN,hourly; !- [J]
Output:Meter:Cumulative,Electricity:Zone:ER_TRIAGE_MULT4_FLR_1 ZN,hourly; !- [J]
Output:Meter,InteriorLights:Electricity:Zone:ER_TRIAGE_MULT4_FLR_1 ZN,hourly; !- [J]
Output:Meter:Cumulative,InteriorLights:Electricity:Zone:ER_TRIAGE_MULT4_FLR_1 ZN,hourly; !- [J]
Output:Meter,Electricity:Zone:OR1_FLR_2 ZN,hourly; !- [J]
Output:Meter:Cumulative,Electricity:Zone:OR1_FLR_2 ZN,hourly; !- [J]
Output:Meter,InteriorLights:Electricity:Zone:OR1_FLR_2 ZN,hourly; !- [J]
Output:Meter:Cumulative,InteriorLights:Electricity:Zone:OR1_FLR_2 ZN,hourly; !- [J]
Output:Meter,Electricity:Zone:OR2_MULT5_FLR_2 ZN,hourly; !- [J]
Output:Meter:Cumulative,Electricity:Zone:OR2_MULT5_FLR_2 ZN,hourly; !- [J]
Output:Meter,InteriorLights:Electricity:Zone:OR2_MULT5_FLR_2 ZN,hourly; !- [J]
Output:Meter:Cumulative,InteriorLights:Electricity:Zone:OR2_MULT5_FLR_2 ZN,hourly; !- [J]
Output:Meter,Electricity:Zone:OR3_FLR_2 ZN,hourly; !- [J]
Output:Meter:Cumulative,Electricity:Zone:OR3_FLR_2 ZN,hourly; !- [J]
Output:Meter,InteriorLights:Electricity:Zone:OR3_FLR_2 ZN,hourly; !- [J]
Output:Meter:Cumulative,InteriorLights:Electricity:Zone:OR3_FLR_2 ZN,hourly; !- [J]
Output:Meter,Electricity:Zone:OR4_FLR_2 ZN,hourly; !- [J]
Output:Meter:Cumulative,Electricity:Zone:OR4_FLR_2 ZN,hourly; !- [J]
Output:Meter,InteriorLights:Electricity:Zone:OR4_FLR_2 ZN,hourly; !- [J]
Output:Meter:Cumulative,InteriorLights:Electricity:Zone:OR4_FLR_2 ZN,hourly; !- [J]
Output:Meter,Electricity:Zone:IC_PATROOM1_MULT5_FLR_2 ZN,hourly; !- [J]
Output:Meter:Cumulative,Electricity:Zone:IC_PATROOM1_MULT5_FLR_2 ZN,hourly; !- [J]
Output:Meter,InteriorLights:Electricity:Zone:IC_PATROOM1_MULT5_FLR_2 ZN,hourly; !- [J]
Output:Meter:Cumulative,InteriorLights:Electricity:Zone:IC_PATROOM1_MULT5_FLR_2 ZN,hourly; !- [J]
Output:Meter,Electricity:Zone:IC_PATROOM2_FLR_2 ZN,hourly; !- [J]
Output:Meter:Cumulative,Electricity:Zone:IC_PATROOM2_FLR_2 ZN,hourly; !- [J]
Output:Meter,InteriorLights:Electricity:Zone:IC_PATROOM2_FLR_2 ZN,hourly; !- [J]
Output:Meter:Cumulative,InteriorLights:Electricity:Zone:IC_PATROOM2_FLR_2 ZN,hourly; !- [J]
Output:Meter,Electricity:Zone:IC_PATROOM3_MULT6_FLR_2 ZN,hourly; !- [J]
Output:Meter:Cumulative,Electricity:Zone:IC_PATROOM3_MULT6_FLR_2 ZN,hourly; !- [J]
Output:Meter,InteriorLights:Electricity:Zone:IC_PATROOM3_MULT6_FLR_2 ZN,hourly; !- [J]
Output:Meter:Cumulative,InteriorLights:Electricity:Zone:IC_PATROOM3_MULT6_FLR_2 ZN,hourly; !- [J]
Output:Meter,Electricity:Zone:PATROOM1_MULT10_FLR_3 ZN,hourly; !- [J]
Output:Meter:Cumulative,Electricity:Zone:PATROOM1_MULT10_FLR_3 ZN,hourly; !- [J]
Output:Meter,InteriorLights:Electricity:Zone:PATROOM1_MULT10_FLR_3 ZN,hourly; !- [J]
Output:Meter:Cumulative,InteriorLights:Electricity:Zone:PATROOM1_MULT10_FLR_3 ZN,hourly; !- [J]
Output:Meter,Electricity:Zone:PATROOM1_MULT10_FLR_4 ZN,hourly; !- [J]
Output:Meter:Cumulative,Electricity:Zone:PATROOM1_MULT10_FLR_4 ZN,hourly; !- [J]
Output:Meter,InteriorLights:Electricity:Zone:PATROOM1_MULT10_FLR_4 ZN,hourly; !- [J]
Output:Meter:Cumulative,InteriorLights:Electricity:Zone:PATROOM1_MULT10_FLR_4 ZN,hourly; !- [J]
Output:Meter,Electricity:Zone:PATROOM2_FLR_3 ZN,hourly; !- [J]
Output:Meter:Cumulative,Electricity:Zone:PATROOM2_FLR_3 ZN,hourly; !- [J]
Output:Meter,InteriorLights:Electricity:Zone:PATROOM2_FLR_3 ZN,hourly; !- [J]
Output:Meter:Cumulative,InteriorLights:Electricity:Zone:PATROOM2_FLR_3 ZN,hourly; !- [J]
Output:Meter,Electricity:Zone:PATROOM2_FLR_4 ZN,hourly; !- [J]
Output:Meter:Cumulative,Electricity:Zone:PATROOM2_FLR_4 ZN,hourly; !- [J]
Output:Meter,InteriorLights:Electricity:Zone:PATROOM2_FLR_4 ZN,hourly; !- [J]
Output:Meter:Cumulative,InteriorLights:Electricity:Zone:PATROOM2_FLR_4 ZN,hourly; !- [J]
Output:Meter,Electricity:Zone:PATROOM3_MULT10_FLR_3 ZN,hourly; !- [J]
Output:Meter:Cumulative,Electricity:Zone:PATROOM3_MULT10_FLR_3 ZN,hourly; !- [J]
Output:Meter,InteriorLights:Electricity:Zone:PATROOM3_MULT10_FLR_3 ZN,hourly; !- [J]
Output:Meter:Cumulative,InteriorLights:Electricity:Zone:PATROOM3_MULT10_FLR_3 ZN,hourly; !- [J]
Output:Meter,Electricity:Zone:PATROOM3_MULT10_FLR_4 ZN,hourly; !- [J]
Output:Meter:Cumulative,Electricity:Zone:PATROOM3_MULT10_FLR_4 ZN,hourly; !- [J]
Output:Meter,InteriorLights:Electricity:Zone:PATROOM3_MULT10_FLR_4 ZN,hourly; !- [J]
Output:Meter:Cumulative,InteriorLights:Electricity:Zone:PATROOM3_MULT10_FLR_4 ZN,hourly; !- [J]
Output:Meter,Electricity:Zone:PATROOM4_FLR_3 ZN,hourly; !- [J]
Output:Meter:Cumulative,Electricity:Zone:PATROOM4_FLR_3 ZN,hourly; !- [J]
Output:Meter,InteriorLights:Electricity:Zone:PATROOM4_FLR_3 ZN,hourly; !- [J]
Output:Meter:Cumulative,InteriorLights:Electricity:Zone:PATROOM4_FLR_3 ZN,hourly; !- [J]
Output:Meter,Electricity:Zone:PATROOM4_FLR_4 ZN,hourly; !- [J]
Output:Meter:Cumulative,Electricity:Zone:PATROOM4_FLR_4 ZN,hourly; !- [J]
Output:Meter,InteriorLights:Electricity:Zone:PATROOM4_FLR_4 ZN,hourly; !- [J]
Output:Meter:Cumulative,InteriorLights:Electricity:Zone:PATROOM4_FLR_4 ZN,hourly; !- [J]
Output:Meter,Electricity:Zone:PATROOM5_MULT10_FLR_3 ZN,hourly; !- [J]
Output:Meter:Cumulative,Electricity:Zone:PATROOM5_MULT10_FLR_3 ZN,hourly; !- [J]
Output:Meter,InteriorLights:Electricity:Zone:PATROOM5_MULT10_FLR_3 ZN,hourly; !- [J]
Output:Meter:Cumulative,InteriorLights:Electricity:Zone:PATROOM5_MULT10_FLR_3 ZN,hourly; !- [J]
Output:Meter,Electricity:Zone:PATROOM5_MULT10_FLR_4 ZN,hourly; !- [J]
Output:Meter:Cumulative,Electricity:Zone:PATROOM5_MULT10_FLR_4 ZN,hourly; !- [J]
Output:Meter,InteriorLights:Electricity:Zone:PATROOM5_MULT10_FLR_4 ZN,hourly; !- [J]
Output:Meter:Cumulative,InteriorLights:Electricity:Zone:PATROOM5_MULT10_FLR_4 ZN,hourly; !- [J]
Output:Meter,Electricity:Zone:PATROOM6_FLR_3 ZN,hourly; !- [J]
Output:Meter:Cumulative,Electricity:Zone:PATROOM6_FLR_3 ZN,hourly; !- [J]
Output:Meter,InteriorLights:Electricity:Zone:PATROOM6_FLR_3 ZN,hourly; !- [J]
Output:Meter:Cumulative,InteriorLights:Electricity:Zone:PATROOM6_FLR_3 ZN,hourly; !- [J]
Output:Meter,Electricity:Zone:PATROOM6_FLR_4 ZN,hourly; !- [J]
Output:Meter:Cumulative,Electricity:Zone:PATROOM6_FLR_4 ZN,hourly; !- [J]
Output:Meter,InteriorLights:Electricity:Zone:PATROOM6_FLR_4 ZN,hourly; !- [J]
Output:Meter:Cumulative,InteriorLights:Electricity:Zone:PATROOM6_FLR_4 ZN,hourly; !- [J]
Output:Meter,Electricity:Zone:PATROOM7_MULT10_FLR_3 ZN,hourly; !- [J]
Output:Meter:Cumulative,Electricity:Zone:PATROOM7_MULT10_FLR_3 ZN,hourly; !- [J]
Output:Meter,InteriorLights:Electricity:Zone:PATROOM7_MULT10_FLR_3 ZN,hourly; !- [J]
Output:Meter:Cumulative,InteriorLights:Electricity:Zone:PATROOM7_MULT10_FLR_3 ZN,hourly; !- [J]
Output:Meter,Electricity:Zone:PATROOM7_MULT10_FLR_4 ZN,hourly; !- [J]
Output:Meter:Cumulative,Electricity:Zone:PATROOM7_MULT10_FLR_4 ZN,hourly; !- [J]
Output:Meter,InteriorLights:Electricity:Zone:PATROOM7_MULT10_FLR_4 ZN,hourly; !- [J]
Output:Meter:Cumulative,InteriorLights:Electricity:Zone:PATROOM7_MULT10_FLR_4 ZN,hourly; !- [J]
Output:Meter,Electricity:Zone:PATROOM8_FLR_3 ZN,hourly; !- [J]
Output:Meter:Cumulative,Electricity:Zone:PATROOM8_FLR_3 ZN,hourly; !- [J]
Output:Meter,InteriorLights:Electricity:Zone:PATROOM8_FLR_3 ZN,hourly; !- [J]
Output:Meter:Cumulative,InteriorLights:Electricity:Zone:PATROOM8_FLR_3 ZN,hourly; !- [J]
Output:Meter,Electricity:Zone:PATROOM8_FLR_4 ZN,hourly; !- [J]
Output:Meter:Cumulative,Electricity:Zone:PATROOM8_FLR_4 ZN,hourly; !- [J]
Output:Meter,InteriorLights:Electricity:Zone:PATROOM8_FLR_4 ZN,hourly; !- [J]
Output:Meter:Cumulative,InteriorLights:Electricity:Zone:PATROOM8_FLR_4 ZN,hourly; !- [J]
Output:Meter,Electricity:Zone:PHYSTHERAPY_FLR_3 ZN,hourly; !- [J]
Output:Meter:Cumulative,Electricity:Zone:PHYSTHERAPY_FLR_3 ZN,hourly; !- [J]
Output:Meter,InteriorLights:Electricity:Zone:PHYSTHERAPY_FLR_3 ZN,hourly; !- [J]
Output:Meter:Cumulative,InteriorLights:Electricity:Zone:PHYSTHERAPY_FLR_3 ZN,hourly; !- [J]
Output:Meter,Electricity:Zone:ICU_FLR_2 ZN,hourly; !- [J]
Output:Meter:Cumulative,Electricity:Zone:ICU_FLR_2 ZN,hourly; !- [J]
Output:Meter,InteriorLights:Electricity:Zone:ICU_FLR_2 ZN,hourly; !- [J]
Output:Meter:Cumulative,InteriorLights:Electricity:Zone:ICU_FLR_2 ZN,hourly; !- [J]
Output:Meter,Electricity:Zone:BASEMENT ZN,hourly; !- [J]
Output:Meter:Cumulative,Electricity:Zone:BASEMENT ZN,hourly; !- [J]
Output:Meter,InteriorLights:Electricity:Zone:BASEMENT ZN,hourly; !- [J]
Output:Meter:Cumulative,InteriorLights:Electricity:Zone:BASEMENT ZN,hourly; !- [J]
Output:Meter,Electricity:Zone:LAB_FLR_3 ZN,hourly; !- [J]
Output:Meter:Cumulative,Electricity:Zone:LAB_FLR_3 ZN,hourly; !- [J]
Output:Meter,InteriorLights:Electricity:Zone:LAB_FLR_3 ZN,hourly; !- [J]
Output:Meter:Cumulative,InteriorLights:Electricity:Zone:LAB_FLR_3 ZN,hourly; !- [J]
Output:Meter,Electricity:Zone:LAB_FLR_4 ZN,hourly; !- [J]
Output:Meter:Cumulative,Electricity:Zone:LAB_FLR_4 ZN,hourly; !- [J]
Output:Meter,InteriorLights:Electricity:Zone:LAB_FLR_4 ZN,hourly; !- [J]
Output:Meter:Cumulative,InteriorLights:Electricity:Zone:LAB_FLR_4 ZN,hourly; !- [J]
Output:Meter,Electricity:Zone:LOBBY_RECORDS_FLR_1 ZN,hourly; !- [J]
Output:Meter:Cumulative,Electricity:Zone:LOBBY_RECORDS_FLR_1 ZN,hourly; !- [J]
Output:Meter,InteriorLights:Electricity:Zone:LOBBY_RECORDS_FLR_1 ZN,hourly; !- [J]
Output:Meter:Cumulative,InteriorLights:Electricity:Zone:LOBBY_RECORDS_FLR_1 ZN,hourly; !- [J]
Output:Meter,Electricity:Zone:OFFICE1_FLR_5 ZN,hourly; !- [J]
Output:Meter:Cumulative,Electricity:Zone:OFFICE1_FLR_5 ZN,hourly; !- [J]
Output:Meter,InteriorLights:Electricity:Zone:OFFICE1_FLR_5 ZN,hourly; !- [J]
Output:Meter:Cumulative,InteriorLights:Electricity:Zone:OFFICE1_FLR_5 ZN,hourly; !- [J]
Output:Meter,Electricity:Zone:OFFICE1_MULT4_FLR_1 ZN,hourly; !- [J]
Output:Meter:Cumulative,Electricity:Zone:OFFICE1_MULT4_FLR_1 ZN,hourly; !- [J]
Output:Meter,InteriorLights:Electricity:Zone:OFFICE1_MULT4_FLR_1 ZN,hourly; !- [J]
Output:Meter:Cumulative,InteriorLights:Electricity:Zone:OFFICE1_MULT4_FLR_1 ZN,hourly; !- [J]
Output:Meter,Electricity:Zone:OFFICE2_MULT5_FLR_5 ZN,hourly; !- [J]
Output:Meter:Cumulative,Electricity:Zone:OFFICE2_MULT5_FLR_5 ZN,hourly; !- [J]
Output:Meter,InteriorLights:Electricity:Zone:OFFICE2_MULT5_FLR_5 ZN,hourly; !- [J]
Output:Meter:Cumulative,InteriorLights:Electricity:Zone:OFFICE2_MULT5_FLR_5 ZN,hourly; !- [J]
Output:Meter,Electricity:Zone:OFFICE3_FLR_5 ZN,hourly; !- [J]
Output:Meter:Cumulative,Electricity:Zone:OFFICE3_FLR_5 ZN,hourly; !- [J]
Output:Meter,InteriorLights:Electricity:Zone:OFFICE3_FLR_5 ZN,hourly; !- [J]
Output:Meter:Cumulative,InteriorLights:Electricity:Zone:OFFICE3_FLR_5 ZN,hourly; !- [J]
Output:Meter,Electricity:Zone:OFFICE4_MULT6_FLR_5 ZN,hourly; !- [J]
Output:Meter:Cumulative,Electricity:Zone:OFFICE4_MULT6_FLR_5 ZN,hourly; !- [J]
Output:Meter,InteriorLights:Electricity:Zone:OFFICE4_MULT6_FLR_5 ZN,hourly; !- [J]
Output:Meter:Cumulative,InteriorLights:Electricity:Zone:OFFICE4_MULT6_FLR_5 ZN,hourly; !- [J]
Output:Meter,InteriorEquipment:Electricity,hourly; !- [J]
Output:Meter:Cumulative,InteriorEquipment:Electricity,hourly; !- [J]
Output:Meter,InteriorEquipment:Electricity:Zone:DINING_FLR_5 ZN,hourly; !- [J]
Output:Meter:Cumulative,InteriorEquipment:Electricity:Zone:DINING_FLR_5 ZN,hourly; !- [J]
Output:Meter,General:InteriorEquipment:Electricity,hourly; !- [J]
Output:Meter:Cumulative,General:InteriorEquipment:Electricity,hourly; !- [J]
Output:Meter,InteriorEquipment:Electricity:Zone:KITCHEN_FLR_5 ZN,hourly; !- [J]
Output:Meter:Cumulative,InteriorEquipment:Electricity:Zone:KITCHEN_FLR_5 ZN,hourly; !- [J]
Output:Meter,InteriorEquipment:Electricity:Zone:RADIOLOGY_FLR_4 ZN,hourly; !- [J]
Output:Meter:Cumulative,InteriorEquipment:Electricity:Zone:RADIOLOGY_FLR_4 ZN,hourly; !- [J]
Output:Meter,InteriorEquipment:Electricity:Zone:ER_NURSESTN_LOBBY_FLR_1 ZN,hourly; !- [J]
Output:Meter:Cumulative,InteriorEquipment:Electricity:Zone:ER_NURSESTN_LOBBY_FLR_1 ZN,hourly; !- [J]
Output:Meter,InteriorEquipment:Electricity:Zone:ICU_NURSESTN_LOBBY_FLR_2 ZN,hourly; !- [J]
Output:Meter:Cumulative,InteriorEquipment:Electricity:Zone:ICU_NURSESTN_LOBBY_FLR_2 ZN,hourly; !- [J]
Output:Meter,InteriorEquipment:Electricity:Zone:NURSESTN_LOBBY_FLR_3 ZN,hourly; !- [J]
Output:Meter:Cumulative,InteriorEquipment:Electricity:Zone:NURSESTN_LOBBY_FLR_3 ZN,hourly; !- [J]
Output:Meter,InteriorEquipment:Electricity:Zone:NURSESTN_LOBBY_FLR_4 ZN,hourly; !- [J]
Output:Meter:Cumulative,InteriorEquipment:Electricity:Zone:NURSESTN_LOBBY_FLR_4 ZN,hourly; !- [J]
Output:Meter,InteriorEquipment:Electricity:Zone:NURSESTN_LOBBY_FLR_5 ZN,hourly; !- [J]
Output:Meter:Cumulative,InteriorEquipment:Electricity:Zone:NURSESTN_LOBBY_FLR_5 ZN,hourly; !- [J]
Output:Meter,InteriorEquipment:Electricity:Zone:OR_NURSESTN_LOBBY_FLR_2 ZN,hourly; !- [J]
Output:Meter:Cumulative,InteriorEquipment:Electricity:Zone:OR_NURSESTN_LOBBY_FLR_2 ZN,hourly; !- [J]
Output:Meter,InteriorEquipment:Electricity:Zone:ER_EXAM1_MULT4_FLR_1 ZN,hourly; !- [J]
Output:Meter:Cumulative,InteriorEquipment:Electricity:Zone:ER_EXAM1_MULT4_FLR_1 ZN,hourly; !- [J]
Output:Meter,InteriorEquipment:Electricity:Zone:ER_EXAM3_MULT4_FLR_1 ZN,hourly; !- [J]
Output:Meter:Cumulative,InteriorEquipment:Electricity:Zone:ER_EXAM3_MULT4_FLR_1 ZN,hourly; !- [J]
Output:Meter,InteriorEquipment:Electricity:Zone:ER_TRAUMA1_FLR_1 ZN,hourly; !- [J]
Output:Meter:Cumulative,InteriorEquipment:Electricity:Zone:ER_TRAUMA1_FLR_1 ZN,hourly; !- [J]
Output:Meter,InteriorEquipment:Electricity:Zone:ER_TRAUMA2_FLR_1 ZN,hourly; !- [J]
Output:Meter:Cumulative,InteriorEquipment:Electricity:Zone:ER_TRAUMA2_FLR_1 ZN,hourly; !- [J]
Output:Meter,InteriorEquipment:Electricity:Zone:ER_TRIAGE_MULT4_FLR_1 ZN,hourly; !- [J]
Output:Meter:Cumulative,InteriorEquipment:Electricity:Zone:ER_TRIAGE_MULT4_FLR_1 ZN,hourly; !- [J]
Output:Meter,InteriorEquipment:Electricity:Zone:OR1_FLR_2 ZN,hourly; !- [J]
Output:Meter:Cumulative,InteriorEquipment:Electricity:Zone:OR1_FLR_2 ZN,hourly; !- [J]
Output:Meter,InteriorEquipment:Electricity:Zone:OR2_MULT5_FLR_2 ZN,hourly; !- [J]
Output:Meter:Cumulative,InteriorEquipment:Electricity:Zone:OR2_MULT5_FLR_2 ZN,hourly; !- [J]
Output:Meter,InteriorEquipment:Electricity:Zone:OR3_FLR_2 ZN,hourly; !- [J]
Output:Meter:Cumulative,InteriorEquipment:Electricity:Zone:OR3_FLR_2 ZN,hourly; !- [J]
Output:Meter,InteriorEquipment:Electricity:Zone:OR4_FLR_2 ZN,hourly; !- [J]
Output:Meter:Cumulative,InteriorEquipment:Electricity:Zone:OR4_FLR_2 ZN,hourly; !- [J]
Output:Meter,InteriorEquipment:Electricity:Zone:IC_PATROOM1_MULT5_FLR_2 ZN,hourly; !- [J]
Output:Meter:Cumulative,InteriorEquipment:Electricity:Zone:IC_PATROOM1_MULT5_FLR_2 ZN,hourly; !- [J]
Output:Meter,InteriorEquipment:Electricity:Zone:IC_PATROOM2_FLR_2 ZN,hourly; !- [J]
Output:Meter:Cumulative,InteriorEquipment:Electricity:Zone:IC_PATROOM2_FLR_2 ZN,hourly; !- [J]
Output:Meter,InteriorEquipment:Electricity:Zone:IC_PATROOM3_MULT6_FLR_2 ZN,hourly; !- [J]
Output:Meter:Cumulative,InteriorEquipment:Electricity:Zone:IC_PATROOM3_MULT6_FLR_2 ZN,hourly; !- [J]
Output:Meter,InteriorEquipment:Electricity:Zone:PATROOM1_MULT10_FLR_3 ZN,hourly; !- [J]
Output:Meter:Cumulative,InteriorEquipment:Electricity:Zone:PATROOM1_MULT10_FLR_3 ZN,hourly; !- [J]
Output:Meter,InteriorEquipment:Electricity:Zone:PATROOM1_MULT10_FLR_4 ZN,hourly; !- [J]
Output:Meter:Cumulative,InteriorEquipment:Electricity:Zone:PATROOM1_MULT10_FLR_4 ZN,hourly; !- [J]
Output:Meter,InteriorEquipment:Electricity:Zone:PATROOM2_FLR_3 ZN,hourly; !- [J]
Output:Meter:Cumulative,InteriorEquipment:Electricity:Zone:PATROOM2_FLR_3 ZN,hourly; !- [J]
Output:Meter,InteriorEquipment:Electricity:Zone:PATROOM2_FLR_4 ZN,hourly; !- [J]
Output:Meter:Cumulative,InteriorEquipment:Electricity:Zone:PATROOM2_FLR_4 ZN,hourly; !- [J]
Output:Meter,InteriorEquipment:Electricity:Zone:PATROOM3_MULT10_FLR_3 ZN,hourly; !- [J]
Output:Meter:Cumulative,InteriorEquipment:Electricity:Zone:PATROOM3_MULT10_FLR_3 ZN,hourly; !- [J]
Output:Meter,InteriorEquipment:Electricity:Zone:PATROOM3_MULT10_FLR_4 ZN,hourly; !- [J]
Output:Meter:Cumulative,InteriorEquipment:Electricity:Zone:PATROOM3_MULT10_FLR_4 ZN,hourly; !- [J]
Output:Meter,InteriorEquipment:Electricity:Zone:PATROOM4_FLR_3 ZN,hourly; !- [J]
Output:Meter:Cumulative,InteriorEquipment:Electricity:Zone:PATROOM4_FLR_3 ZN,hourly; !- [J]
Output:Meter,InteriorEquipment:Electricity:Zone:PATROOM4_FLR_4 ZN,hourly; !- [J]
Output:Meter:Cumulative,InteriorEquipment:Electricity:Zone:PATROOM4_FLR_4 ZN,hourly; !- [J]
Output:Meter,InteriorEquipment:Electricity:Zone:PATROOM5_MULT10_FLR_3 ZN,hourly; !- [J]
Output:Meter:Cumulative,InteriorEquipment:Electricity:Zone:PATROOM5_MULT10_FLR_3 ZN,hourly; !- [J]
Output:Meter,InteriorEquipment:Electricity:Zone:PATROOM5_MULT10_FLR_4 ZN,hourly; !- [J]
Output:Meter:Cumulative,InteriorEquipment:Electricity:Zone:PATROOM5_MULT10_FLR_4 ZN,hourly; !- [J]
Output:Meter,InteriorEquipment:Electricity:Zone:PATROOM6_FLR_3 ZN,hourly; !- [J]
Output:Meter:Cumulative,InteriorEquipment:Electricity:Zone:PATROOM6_FLR_3 ZN,hourly; !- [J]
Output:Meter,InteriorEquipment:Electricity:Zone:PATROOM6_FLR_4 ZN,hourly; !- [J]
Output:Meter:Cumulative,InteriorEquipment:Electricity:Zone:PATROOM6_FLR_4 ZN,hourly; !- [J]
Output:Meter,InteriorEquipment:Electricity:Zone:PATROOM7_MULT10_FLR_3 ZN,hourly; !- [J]
Output:Meter:Cumulative,InteriorEquipment:Electricity:Zone:PATROOM7_MULT10_FLR_3 ZN,hourly; !- [J]
Output:Meter,InteriorEquipment:Electricity:Zone:PATROOM7_MULT10_FLR_4 ZN,hourly; !- [J]
Output:Meter:Cumulative,InteriorEquipment:Electricity:Zone:PATROOM7_MULT10_FLR_4 ZN,hourly; !- [J]
Output:Meter,InteriorEquipment:Electricity:Zone:PATROOM8_FLR_3 ZN,hourly; !- [J]
Output:Meter:Cumulative,InteriorEquipment:Electricity:Zone:PATROOM8_FLR_3 ZN,hourly; !- [J]
Output:Meter,InteriorEquipment:Electricity:Zone:PATROOM8_FLR_4 ZN,hourly; !- [J]
Output:Meter:Cumulative,InteriorEquipment:Electricity:Zone:PATROOM8_FLR_4 ZN,hourly; !- [J]
Output:Meter,InteriorEquipment:Electricity:Zone:PHYSTHERAPY_FLR_3 ZN,hourly; !- [J]
Output:Meter:Cumulative,InteriorEquipment:Electricity:Zone:PHYSTHERAPY_FLR_3 ZN,hourly; !- [J]
Output:Meter,InteriorEquipment:Electricity:Zone:ICU_FLR_2 ZN,hourly; !- [J]
Output:Meter:Cumulative,InteriorEquipment:Electricity:Zone:ICU_FLR_2 ZN,hourly; !- [J]
Output:Meter,InteriorEquipment:Electricity:Zone:BASEMENT ZN,hourly; !- [J]
Output:Meter:Cumulative,InteriorEquipment:Electricity:Zone:BASEMENT ZN,hourly; !- [J]
Output:Meter,InteriorEquipment:Electricity:Zone:LAB_FLR_3 ZN,hourly; !- [J]
Output:Meter:Cumulative,InteriorEquipment:Electricity:Zone:LAB_FLR_3 ZN,hourly; !- [J]
Output:Meter,InteriorEquipment:Electricity:Zone:LAB_FLR_4 ZN,hourly; !- [J]
Output:Meter:Cumulative,InteriorEquipment:Electricity:Zone:LAB_FLR_4 ZN,hourly; !- [J]
Output:Meter,InteriorEquipment:Electricity:Zone:LOBBY_RECORDS_FLR_1 ZN,hourly; !- [J]
Output:Meter:Cumulative,InteriorEquipment:Electricity:Zone:LOBBY_RECORDS_FLR_1 ZN,hourly; !- [J]
Output:Meter,InteriorEquipment:Electricity:Zone:OFFICE1_FLR_5 ZN,hourly; !- [J]
Output:Meter:Cumulative,InteriorEquipment:Electricity:Zone:OFFICE1_FLR_5 ZN,hourly; !- [J]
Output:Meter,InteriorEquipment:Electricity:Zone:OFFICE1_MULT4_FLR_1 ZN,hourly; !- [J]
Output:Meter:Cumulative,InteriorEquipment:Electricity:Zone:OFFICE1_MULT4_FLR_1 ZN,hourly; !- [J]
Output:Meter,InteriorEquipment:Electricity:Zone:OFFICE2_MULT5_FLR_5 ZN,hourly; !- [J]
Output:Meter:Cumulative,InteriorEquipment:Electricity:Zone:OFFICE2_MULT5_FLR_5 ZN,hourly; !- [J]
Output:Meter,InteriorEquipment:Electricity:Zone:OFFICE3_FLR_5 ZN,hourly; !- [J]
Output:Meter:Cumulative,InteriorEquipment:Electricity:Zone:OFFICE3_FLR_5 ZN,hourly; !- [J]
Output:Meter,InteriorEquipment:Electricity:Zone:OFFICE4_MULT6_FLR_5 ZN,hourly; !- [J]
Output:Meter:Cumulative,InteriorEquipment:Electricity:Zone:OFFICE4_MULT6_FLR_5 ZN,hourly; !- [J]
Output:Meter,EnergyTransfer:Facility,hourly; !- [J]
Output:Meter:Cumulative,EnergyTransfer:Facility,hourly; !- [J]
Output:Meter,EnergyTransfer:Building,hourly; !- [J]
Output:Meter:Cumulative,EnergyTransfer:Building,hourly; !- [J]
Output:Meter,EnergyTransfer:Zone:BASEMENT ZN,hourly; !- [J]
Output:Meter:Cumulative,EnergyTransfer:Zone:BASEMENT ZN,hourly; !- [J]
Output:Meter,Heating:EnergyTransfer,hourly; !- [J]
Output:Meter:Cumulative,Heating:EnergyTransfer,hourly; !- [J]
Output:Meter,Heating:EnergyTransfer:Zone:BASEMENT ZN,hourly; !- [J]
Output:Meter:Cumulative,Heating:EnergyTransfer:Zone:BASEMENT ZN,hourly; !- [J]
Output:Meter,Cooling:EnergyTransfer,hourly; !- [J]
Output:Meter:Cumulative,Cooling:EnergyTransfer,hourly; !- [J]
Output:Meter,Cooling:EnergyTransfer:Zone:BASEMENT ZN,hourly; !- [J]
Output:Meter:Cumulative,Cooling:EnergyTransfer:Zone:BASEMENT ZN,hourly; !- [J]
Output:Meter,EnergyTransfer:Zone:CORRIDOR_FLR_1 ZN,hourly; !- [J]
Output:Meter:Cumulative,EnergyTransfer:Zone:CORRIDOR_FLR_1 ZN,hourly; !- [J]
Output:Meter,Heating:EnergyTransfer:Zone:CORRIDOR_FLR_1 ZN,hourly; !- [J]
Output:Meter:Cumulative,Heating:EnergyTransfer:Zone:CORRIDOR_FLR_1 ZN,hourly; !- [J]
Output:Meter,Cooling:EnergyTransfer:Zone:CORRIDOR_FLR_1 ZN,hourly; !- [J]
Output:Meter:Cumulative,Cooling:EnergyTransfer:Zone:CORRIDOR_FLR_1 ZN,hourly; !- [J]
Output:Meter,EnergyTransfer:Zone:CORRIDOR_FLR_2 ZN,hourly; !- [J]
Output:Meter:Cumulative,EnergyTransfer:Zone:CORRIDOR_FLR_2 ZN,hourly; !- [J]
Output:Meter,Heating:EnergyTransfer:Zone:CORRIDOR_FLR_2 ZN,hourly; !- [J]
Output:Meter:Cumulative,Heating:EnergyTransfer:Zone:CORRIDOR_FLR_2 ZN,hourly; !- [J]
Output:Meter,Cooling:EnergyTransfer:Zone:CORRIDOR_FLR_2 ZN,hourly; !- [J]
Output:Meter:Cumulative,Cooling:EnergyTransfer:Zone:CORRIDOR_FLR_2 ZN,hourly; !- [J]
Output:Meter,EnergyTransfer:Zone:CORRIDOR_FLR_5 ZN,hourly; !- [J]
Output:Meter:Cumulative,EnergyTransfer:Zone:CORRIDOR_FLR_5 ZN,hourly; !- [J]
Output:Meter,Heating:EnergyTransfer:Zone:CORRIDOR_FLR_5 ZN,hourly; !- [J]
Output:Meter:Cumulative,Heating:EnergyTransfer:Zone:CORRIDOR_FLR_5 ZN,hourly; !- [J]
Output:Meter,Cooling:EnergyTransfer:Zone:CORRIDOR_FLR_5 ZN,hourly; !- [J]
Output:Meter:Cumulative,Cooling:EnergyTransfer:Zone:CORRIDOR_FLR_5 ZN,hourly; !- [J]
Output:Meter,EnergyTransfer:Zone:CORRIDOR_NW_FLR_3 ZN,hourly; !- [J]
Output:Meter:Cumulative,EnergyTransfer:Zone:CORRIDOR_NW_FLR_3 ZN,hourly; !- [J]
Output:Meter,Heating:EnergyTransfer:Zone:CORRIDOR_NW_FLR_3 ZN,hourly; !- [J]
Output:Meter:Cumulative,Heating:EnergyTransfer:Zone:CORRIDOR_NW_FLR_3 ZN,hourly; !- [J]
Output:Meter,Cooling:EnergyTransfer:Zone:CORRIDOR_NW_FLR_3 ZN,hourly; !- [J]
Output:Meter:Cumulative,Cooling:EnergyTransfer:Zone:CORRIDOR_NW_FLR_3 ZN,hourly; !- [J]
Output:Meter,EnergyTransfer:Zone:CORRIDOR_NW_FLR_4 ZN,hourly; !- [J]
Output:Meter:Cumulative,EnergyTransfer:Zone:CORRIDOR_NW_FLR_4 ZN,hourly; !- [J]
Output:Meter,Heating:EnergyTransfer:Zone:CORRIDOR_NW_FLR_4 ZN,hourly; !- [J]
Output:Meter:Cumulative,Heating:EnergyTransfer:Zone:CORRIDOR_NW_FLR_4 ZN,hourly; !- [J]
Output:Meter,Cooling:EnergyTransfer:Zone:CORRIDOR_NW_FLR_4 ZN,hourly; !- [J]
Output:Meter:Cumulative,Cooling:EnergyTransfer:Zone:CORRIDOR_NW_FLR_4 ZN,hourly; !- [J]
Output:Meter,EnergyTransfer:Zone:CORRIDOR_SE_FLR_3 ZN,hourly; !- [J]
Output:Meter:Cumulative,EnergyTransfer:Zone:CORRIDOR_SE_FLR_3 ZN,hourly; !- [J]
Output:Meter,Heating:EnergyTransfer:Zone:CORRIDOR_SE_FLR_3 ZN,hourly; !- [J]
Output:Meter:Cumulative,Heating:EnergyTransfer:Zone:CORRIDOR_SE_FLR_3 ZN,hourly; !- [J]
Output:Meter,Cooling:EnergyTransfer:Zone:CORRIDOR_SE_FLR_3 ZN,hourly; !- [J]
Output:Meter:Cumulative,Cooling:EnergyTransfer:Zone:CORRIDOR_SE_FLR_3 ZN,hourly; !- [J]
Output:Meter,EnergyTransfer:Zone:CORRIDOR_SE_FLR_4 ZN,hourly; !- [J]
Output:Meter:Cumulative,EnergyTransfer:Zone:CORRIDOR_SE_FLR_4 ZN,hourly; !- [J]
Output:Meter,Heating:EnergyTransfer:Zone:CORRIDOR_SE_FLR_4 ZN,hourly; !- [J]
Output:Meter:Cumulative,Heating:EnergyTransfer:Zone:CORRIDOR_SE_FLR_4 ZN,hourly; !- [J]
Output:Meter,Cooling:EnergyTransfer:Zone:CORRIDOR_SE_FLR_4 ZN,hourly; !- [J]
Output:Meter:Cumulative,Cooling:EnergyTransfer:Zone:CORRIDOR_SE_FLR_4 ZN,hourly; !- [J]
Output:Meter,EnergyTransfer:Zone:DINING_FLR_5 ZN,hourly; !- [J]
Output:Meter:Cumulative,EnergyTransfer:Zone:DINING_FLR_5 ZN,hourly; !- [J]
Output:Meter,Heating:EnergyTransfer:Zone:DINING_FLR_5 ZN,hourly; !- [J]
Output:Meter:Cumulative,Heating:EnergyTransfer:Zone:DINING_FLR_5 ZN,hourly; !- [J]
Output:Meter,Cooling:EnergyTransfer:Zone:DINING_FLR_5 ZN,hourly; !- [J]
Output:Meter:Cumulative,Cooling:EnergyTransfer:Zone:DINING_FLR_5 ZN,hourly; !- [J]
Output:Meter,EnergyTransfer:Zone:ER_EXAM1_MULT4_FLR_1 ZN,hourly; !- [J]
Output:Meter:Cumulative,EnergyTransfer:Zone:ER_EXAM1_MULT4_FLR_1 ZN,hourly; !- [J]
Output:Meter,Heating:EnergyTransfer:Zone:ER_EXAM1_MULT4_FLR_1 ZN,hourly; !- [J]
Output:Meter:Cumulative,Heating:EnergyTransfer:Zone:ER_EXAM1_MULT4_FLR_1 ZN,hourly; !- [J]
Output:Meter,Cooling:EnergyTransfer:Zone:ER_EXAM1_MULT4_FLR_1 ZN,hourly; !- [J]
Output:Meter:Cumulative,Cooling:EnergyTransfer:Zone:ER_EXAM1_MULT4_FLR_1 ZN,hourly; !- [J]
Output:Meter,EnergyTransfer:Zone:ER_EXAM3_MULT4_FLR_1 ZN,hourly; !- [J]
Output:Meter:Cumulative,EnergyTransfer:Zone:ER_EXAM3_MULT4_FLR_1 ZN,hourly; !- [J]
Output:Meter,Heating:EnergyTransfer:Zone:ER_EXAM3_MULT4_FLR_1 ZN,hourly; !- [J]
Output:Meter:Cumulative,Heating:EnergyTransfer:Zone:ER_EXAM3_MULT4_FLR_1 ZN,hourly; !- [J]
Output:Meter,Cooling:EnergyTransfer:Zone:ER_EXAM3_MULT4_FLR_1 ZN,hourly; !- [J]
Output:Meter:Cumulative,Cooling:EnergyTransfer:Zone:ER_EXAM3_MULT4_FLR_1 ZN,hourly; !- [J]
Output:Meter,EnergyTransfer:Zone:ER_NURSESTN_LOBBY_FLR_1 ZN,hourly; !- [J]
Output:Meter:Cumulative,EnergyTransfer:Zone:ER_NURSESTN_LOBBY_FLR_1 ZN,hourly; !- [J]
Output:Meter,Heating:EnergyTransfer:Zone:ER_NURSESTN_LOBBY_FLR_1 ZN,hourly; !- [J]
Output:Meter:Cumulative,Heating:EnergyTransfer:Zone:ER_NURSESTN_LOBBY_FLR_1 ZN,hourly; !- [J]
Output:Meter,Cooling:EnergyTransfer:Zone:ER_NURSESTN_LOBBY_FLR_1 ZN,hourly; !- [J]
Output:Meter:Cumulative,Cooling:EnergyTransfer:Zone:ER_NURSESTN_LOBBY_FLR_1 ZN,hourly; !- [J]
Output:Meter,EnergyTransfer:Zone:ER_TRAUMA1_FLR_1 ZN,hourly; !- [J]
Output:Meter:Cumulative,EnergyTransfer:Zone:ER_TRAUMA1_FLR_1 ZN,hourly; !- [J]
Output:Meter,Heating:EnergyTransfer:Zone:ER_TRAUMA1_FLR_1 ZN,hourly; !- [J]
Output:Meter:Cumulative,Heating:EnergyTransfer:Zone:ER_TRAUMA1_FLR_1 ZN,hourly; !- [J]
Output:Meter,Cooling:EnergyTransfer:Zone:ER_TRAUMA1_FLR_1 ZN,hourly; !- [J]
Output:Meter:Cumulative,Cooling:EnergyTransfer:Zone:ER_TRAUMA1_FLR_1 ZN,hourly; !- [J]
Output:Meter,EnergyTransfer:Zone:ER_TRAUMA2_FLR_1 ZN,hourly; !- [J]
Output:Meter:Cumulative,EnergyTransfer:Zone:ER_TRAUMA2_FLR_1 ZN,hourly; !- [J]
Output:Meter,Heating:EnergyTransfer:Zone:ER_TRAUMA2_FLR_1 ZN,hourly; !- [J]
Output:Meter:Cumulative,Heating:EnergyTransfer:Zone:ER_TRAUMA2_FLR_1 ZN,hourly; !- [J]
Output:Meter,Cooling:EnergyTransfer:Zone:ER_TRAUMA2_FLR_1 ZN,hourly; !- [J]
Output:Meter:Cumulative,Cooling:EnergyTransfer:Zone:ER_TRAUMA2_FLR_1 ZN,hourly; !- [J]
Output:Meter,EnergyTransfer:Zone:ER_TRIAGE_MULT4_FLR_1 ZN,hourly; !- [J]
Output:Meter:Cumulative,EnergyTransfer:Zone:ER_TRIAGE_MULT4_FLR_1 ZN,hourly; !- [J]
Output:Meter,Heating:EnergyTransfer:Zone:ER_TRIAGE_MULT4_FLR_1 ZN,hourly; !- [J]
Output:Meter:Cumulative,Heating:EnergyTransfer:Zone:ER_TRIAGE_MULT4_FLR_1 ZN,hourly; !- [J]
Output:Meter,Cooling:EnergyTransfer:Zone:ER_TRIAGE_MULT4_FLR_1 ZN,hourly; !- [J]
Output:Meter:Cumulative,Cooling:EnergyTransfer:Zone:ER_TRIAGE_MULT4_FLR_1 ZN,hourly; !- [J]
Output:Meter,EnergyTransfer:Zone:ICU_FLR_2 ZN,hourly; !- [J]
Output:Meter:Cumulative,EnergyTransfer:Zone:ICU_FLR_2 ZN,hourly; !- [J]
Output:Meter,Heating:EnergyTransfer:Zone:ICU_FLR_2 ZN,hourly; !- [J]
Output:Meter:Cumulative,Heating:EnergyTransfer:Zone:ICU_FLR_2 ZN,hourly; !- [J]
Output:Meter,Cooling:EnergyTransfer:Zone:ICU_FLR_2 ZN,hourly; !- [J]
Output:Meter:Cumulative,Cooling:EnergyTransfer:Zone:ICU_FLR_2 ZN,hourly; !- [J]
Output:Meter,EnergyTransfer:Zone:ICU_NURSESTN_LOBBY_FLR_2 ZN,hourly; !- [J]
Output:Meter:Cumulative,EnergyTransfer:Zone:ICU_NURSESTN_LOBBY_FLR_2 ZN,hourly; !- [J]
Output:Meter,Heating:EnergyTransfer:Zone:ICU_NURSESTN_LOBBY_FLR_2 ZN,hourly; !- [J]
Output:Meter:Cumulative,Heating:EnergyTransfer:Zone:ICU_NURSESTN_LOBBY_FLR_2 ZN,hourly; !- [J]
Output:Meter,Cooling:EnergyTransfer:Zone:ICU_NURSESTN_LOBBY_FLR_2 ZN,hourly; !- [J]
Output:Meter:Cumulative,Cooling:EnergyTransfer:Zone:ICU_NURSESTN_LOBBY_FLR_2 ZN,hourly; !- [J]
Output:Meter,EnergyTransfer:Zone:IC_PATROOM1_MULT5_FLR_2 ZN,hourly; !- [J]
Output:Meter:Cumulative,EnergyTransfer:Zone:IC_PATROOM1_MULT5_FLR_2 ZN,hourly; !- [J]
Output:Meter,Heating:EnergyTransfer:Zone:IC_PATROOM1_MULT5_FLR_2 ZN,hourly; !- [J]
Output:Meter:Cumulative,Heating:EnergyTransfer:Zone:IC_PATROOM1_MULT5_FLR_2 ZN,hourly; !- [J]
Output:Meter,Cooling:EnergyTransfer:Zone:IC_PATROOM1_MULT5_FLR_2 ZN,hourly; !- [J]
Output:Meter:Cumulative,Cooling:EnergyTransfer:Zone:IC_PATROOM1_MULT5_FLR_2 ZN,hourly; !- [J]
Output:Meter,EnergyTransfer:Zone:IC_PATROOM2_FLR_2 ZN,hourly; !- [J]
Output:Meter:Cumulative,EnergyTransfer:Zone:IC_PATROOM2_FLR_2 ZN,hourly; !- [J]
Output:Meter,Heating:EnergyTransfer:Zone:IC_PATROOM2_FLR_2 ZN,hourly; !- [J]
Output:Meter:Cumulative,Heating:EnergyTransfer:Zone:IC_PATROOM2_FLR_2 ZN,hourly; !- [J]
Output:Meter,Cooling:EnergyTransfer:Zone:IC_PATROOM2_FLR_2 ZN,hourly; !- [J]
Output:Meter:Cumulative,Cooling:EnergyTransfer:Zone:IC_PATROOM2_FLR_2 ZN,hourly; !- [J]
Output:Meter,EnergyTransfer:Zone:IC_PATROOM3_MULT6_FLR_2 ZN,hourly; !- [J]
Output:Meter:Cumulative,EnergyTransfer:Zone:IC_PATROOM3_MULT6_FLR_2 ZN,hourly; !- [J]
Output:Meter,Heating:EnergyTransfer:Zone:IC_PATROOM3_MULT6_FLR_2 ZN,hourly; !- [J]
Output:Meter:Cumulative,Heating:EnergyTransfer:Zone:IC_PATROOM3_MULT6_FLR_2 ZN,hourly; !- [J]
Output:Meter,Cooling:EnergyTransfer:Zone:IC_PATROOM3_MULT6_FLR_2 ZN,hourly; !- [J]
Output:Meter:Cumulative,Cooling:EnergyTransfer:Zone:IC_PATROOM3_MULT6_FLR_2 ZN,hourly; !- [J]
Output:Meter,EnergyTransfer:Zone:KITCHEN_FLR_5 ZN,hourly; !- [J]
Output:Meter:Cumulative,EnergyTransfer:Zone:KITCHEN_FLR_5 ZN,hourly; !- [J]
Output:Meter,Heating:EnergyTransfer:Zone:KITCHEN_FLR_5 ZN,hourly; !- [J]
Output:Meter:Cumulative,Heating:EnergyTransfer:Zone:KITCHEN_FLR_5 ZN,hourly; !- [J]
Output:Meter,Cooling:EnergyTransfer:Zone:KITCHEN_FLR_5 ZN,hourly; !- [J]
Output:Meter:Cumulative,Cooling:EnergyTransfer:Zone:KITCHEN_FLR_5 ZN,hourly; !- [J]
Output:Meter,EnergyTransfer:Zone:LAB_FLR_3 ZN,hourly; !- [J]
Output:Meter:Cumulative,EnergyTransfer:Zone:LAB_FLR_3 ZN,hourly; !- [J]
Output:Meter,Heating:EnergyTransfer:Zone:LAB_FLR_3 ZN,hourly; !- [J]
Output:Meter:Cumulative,Heating:EnergyTransfer:Zone:LAB_FLR_3 ZN,hourly; !- [J]
Output:Meter,Cooling:EnergyTransfer:Zone:LAB_FLR_3 ZN,hourly; !- [J]
Output:Meter:Cumulative,Cooling:EnergyTransfer:Zone:LAB_FLR_3 ZN,hourly; !- [J]
Output:Meter,EnergyTransfer:Zone:LAB_FLR_4 ZN,hourly; !- [J]
Output:Meter:Cumulative,EnergyTransfer:Zone:LAB_FLR_4 ZN,hourly; !- [J]
Output:Meter,Heating:EnergyTransfer:Zone:LAB_FLR_4 ZN,hourly; !- [J]
Output:Meter:Cumulative,Heating:EnergyTransfer:Zone:LAB_FLR_4 ZN,hourly; !- [J]
Output:Meter,Cooling:EnergyTransfer:Zone:LAB_FLR_4 ZN,hourly; !- [J]
Output:Meter:Cumulative,Cooling:EnergyTransfer:Zone:LAB_FLR_4 ZN,hourly; !- [J]
Output:Meter,EnergyTransfer:Zone:LOBBY_RECORDS_FLR_1 ZN,hourly; !- [J]
Output:Meter:Cumulative,EnergyTransfer:Zone:LOBBY_RECORDS_FLR_1 ZN,hourly; !- [J]
Output:Meter,Heating:EnergyTransfer:Zone:LOBBY_RECORDS_FLR_1 ZN,hourly; !- [J]
Output:Meter:Cumulative,Heating:EnergyTransfer:Zone:LOBBY_RECORDS_FLR_1 ZN,hourly; !- [J]
Output:Meter,Cooling:EnergyTransfer:Zone:LOBBY_RECORDS_FLR_1 ZN,hourly; !- [J]
Output:Meter:Cumulative,Cooling:EnergyTransfer:Zone:LOBBY_RECORDS_FLR_1 ZN,hourly; !- [J]
Output:Meter,EnergyTransfer:Zone:NURSESTN_LOBBY_FLR_3 ZN,hourly; !- [J]
Output:Meter:Cumulative,EnergyTransfer:Zone:NURSESTN_LOBBY_FLR_3 ZN,hourly; !- [J]
Output:Meter,Heating:EnergyTransfer:Zone:NURSESTN_LOBBY_FLR_3 ZN,hourly; !- [J]
Output:Meter:Cumulative,Heating:EnergyTransfer:Zone:NURSESTN_LOBBY_FLR_3 ZN,hourly; !- [J]
Output:Meter,Cooling:EnergyTransfer:Zone:NURSESTN_LOBBY_FLR_3 ZN,hourly; !- [J]
Output:Meter:Cumulative,Cooling:EnergyTransfer:Zone:NURSESTN_LOBBY_FLR_3 ZN,hourly; !- [J]
Output:Meter,EnergyTransfer:Zone:NURSESTN_LOBBY_FLR_4 ZN,hourly; !- [J]
Output:Meter:Cumulative,EnergyTransfer:Zone:NURSESTN_LOBBY_FLR_4 ZN,hourly; !- [J]
Output:Meter,Heating:EnergyTransfer:Zone:NURSESTN_LOBBY_FLR_4 ZN,hourly; !- [J]
Output:Meter:Cumulative,Heating:EnergyTransfer:Zone:NURSESTN_LOBBY_FLR_4 ZN,hourly; !- [J]
Output:Meter,Cooling:EnergyTransfer:Zone:NURSESTN_LOBBY_FLR_4 ZN,hourly; !- [J]
Output:Meter:Cumulative,Cooling:EnergyTransfer:Zone:NURSESTN_LOBBY_FLR_4 ZN,hourly; !- [J]
Output:Meter,EnergyTransfer:Zone:NURSESTN_LOBBY_FLR_5 ZN,hourly; !- [J]
Output:Meter:Cumulative,EnergyTransfer:Zone:NURSESTN_LOBBY_FLR_5 ZN,hourly; !- [J]
Output:Meter,Heating:EnergyTransfer:Zone:NURSESTN_LOBBY_FLR_5 ZN,hourly; !- [J]
Output:Meter:Cumulative,Heating:EnergyTransfer:Zone:NURSESTN_LOBBY_FLR_5 ZN,hourly; !- [J]
Output:Meter,Cooling:EnergyTransfer:Zone:NURSESTN_LOBBY_FLR_5 ZN,hourly; !- [J]
Output:Meter:Cumulative,Cooling:EnergyTransfer:Zone:NURSESTN_LOBBY_FLR_5 ZN,hourly; !- [J]
Output:Meter,EnergyTransfer:Zone:OFFICE1_FLR_5 ZN,hourly; !- [J]
Output:Meter:Cumulative,EnergyTransfer:Zone:OFFICE1_FLR_5 ZN,hourly; !- [J]
Output:Meter,Heating:EnergyTransfer:Zone:OFFICE1_FLR_5 ZN,hourly; !- [J]
Output:Meter:Cumulative,Heating:EnergyTransfer:Zone:OFFICE1_FLR_5 ZN,hourly; !- [J]
Output:Meter,Cooling:EnergyTransfer:Zone:OFFICE1_FLR_5 ZN,hourly; !- [J]
Output:Meter:Cumulative,Cooling:EnergyTransfer:Zone:OFFICE1_FLR_5 ZN,hourly; !- [J]
Output:Meter,EnergyTransfer:Zone:OFFICE1_MULT4_FLR_1 ZN,hourly; !- [J]
Output:Meter:Cumulative,EnergyTransfer:Zone:OFFICE1_MULT4_FLR_1 ZN,hourly; !- [J]
Output:Meter,Heating:EnergyTransfer:Zone:OFFICE1_MULT4_FLR_1 ZN,hourly; !- [J]
Output:Meter:Cumulative,Heating:EnergyTransfer:Zone:OFFICE1_MULT4_FLR_1 ZN,hourly; !- [J]
Output:Meter,Cooling:EnergyTransfer:Zone:OFFICE1_MULT4_FLR_1 ZN,hourly; !- [J]
Output:Meter:Cumulative,Cooling:EnergyTransfer:Zone:OFFICE1_MULT4_FLR_1 ZN,hourly; !- [J]
Output:Meter,EnergyTransfer:Zone:OFFICE2_MULT5_FLR_5 ZN,hourly; !- [J]
Output:Meter:Cumulative,EnergyTransfer:Zone:OFFICE2_MULT5_FLR_5 ZN,hourly; !- [J]
Output:Meter,Heating:EnergyTransfer:Zone:OFFICE2_MULT5_FLR_5 ZN,hourly; !- [J]
Output:Meter:Cumulative,Heating:EnergyTransfer:Zone:OFFICE2_MULT5_FLR_5 ZN,hourly; !- [J]
Output:Meter,Cooling:EnergyTransfer:Zone:OFFICE2_MULT5_FLR_5 ZN,hourly; !- [J]
Output:Meter:Cumulative,Cooling:EnergyTransfer:Zone:OFFICE2_MULT5_FLR_5 ZN,hourly; !- [J]
Output:Meter,EnergyTransfer:Zone:OFFICE3_FLR_5 ZN,hourly; !- [J]
Output:Meter:Cumulative,EnergyTransfer:Zone:OFFICE3_FLR_5 ZN,hourly; !- [J]
Output:Meter,Heating:EnergyTransfer:Zone:OFFICE3_FLR_5 ZN,hourly; !- [J]
Output:Meter:Cumulative,Heating:EnergyTransfer:Zone:OFFICE3_FLR_5 ZN,hourly; !- [J]
Output:Meter,Cooling:EnergyTransfer:Zone:OFFICE3_FLR_5 ZN,hourly; !- [J]
Output:Meter:Cumulative,Cooling:EnergyTransfer:Zone:OFFICE3_FLR_5 ZN,hourly; !- [J]
Output:Meter,EnergyTransfer:Zone:OFFICE4_MULT6_FLR_5 ZN,hourly; !- [J]
Output:Meter:Cumulative,EnergyTransfer:Zone:OFFICE4_MULT6_FLR_5 ZN,hourly; !- [J]
Output:Meter,Heating:EnergyTransfer:Zone:OFFICE4_MULT6_FLR_5 ZN,hourly; !- [J]
Output:Meter:Cumulative,Heating:EnergyTransfer:Zone:OFFICE4_MULT6_FLR_5 ZN,hourly; !- [J]
Output:Meter,Cooling:EnergyTransfer:Zone:OFFICE4_MULT6_FLR_5 ZN,hourly; !- [J]
Output:Meter:Cumulative,Cooling:EnergyTransfer:Zone:OFFICE4_MULT6_FLR_5 ZN,hourly; !- [J]
Output:Meter,EnergyTransfer:Zone:OR1_FLR_2 ZN,hourly; !- [J]
Output:Meter:Cumulative,EnergyTransfer:Zone:OR1_FLR_2 ZN,hourly; !- [J]
Output:Meter,Heating:EnergyTransfer:Zone:OR1_FLR_2 ZN,hourly; !- [J]
Output:Meter:Cumulative,Heating:EnergyTransfer:Zone:OR1_FLR_2 ZN,hourly; !- [J]
Output:Meter,Cooling:EnergyTransfer:Zone:OR1_FLR_2 ZN,hourly; !- [J]
Output:Meter:Cumulative,Cooling:EnergyTransfer:Zone:OR1_FLR_2 ZN,hourly; !- [J]
Output:Meter,EnergyTransfer:Zone:OR2_MULT5_FLR_2 ZN,hourly; !- [J]
Output:Meter:Cumulative,EnergyTransfer:Zone:OR2_MULT5_FLR_2 ZN,hourly; !- [J]
Output:Meter,Heating:EnergyTransfer:Zone:OR2_MULT5_FLR_2 ZN,hourly; !- [J]
Output:Meter:Cumulative,Heating:EnergyTransfer:Zone:OR2_MULT5_FLR_2 ZN,hourly; !- [J]
Output:Meter,Cooling:EnergyTransfer:Zone:OR2_MULT5_FLR_2 ZN,hourly; !- [J]
Output:Meter:Cumulative,Cooling:EnergyTransfer:Zone:OR2_MULT5_FLR_2 ZN,hourly; !- [J]
Output:Meter,EnergyTransfer:Zone:OR3_FLR_2 ZN,hourly; !- [J]
Output:Meter:Cumulative,EnergyTransfer:Zone:OR3_FLR_2 ZN,hourly; !- [J]
Output:Meter,Heating:EnergyTransfer:Zone:OR3_FLR_2 ZN,hourly; !- [J]
Output:Meter:Cumulative,Heating:EnergyTransfer:Zone:OR3_FLR_2 ZN,hourly; !- [J]
Output:Meter,Cooling:EnergyTransfer:Zone:OR3_FLR_2 ZN,hourly; !- [J]
Output:Meter:Cumulative,Cooling:EnergyTransfer:Zone:OR3_FLR_2 ZN,hourly; !- [J]
Output:Meter,EnergyTransfer:Zone:OR4_FLR_2 ZN,hourly; !- [J]
Output:Meter:Cumulative,EnergyTransfer:Zone:OR4_FLR_2 ZN,hourly; !- [J]
Output:Meter,Heating:EnergyTransfer:Zone:OR4_FLR_2 ZN,hourly; !- [J]
Output:Meter:Cumulative,Heating:EnergyTransfer:Zone:OR4_FLR_2 ZN,hourly; !- [J]
Output:Meter,Cooling:EnergyTransfer:Zone:OR4_FLR_2 ZN,hourly; !- [J]
Output:Meter:Cumulative,Cooling:EnergyTransfer:Zone:OR4_FLR_2 ZN,hourly; !- [J]
Output:Meter,EnergyTransfer:Zone:OR_NURSESTN_LOBBY_FLR_2 ZN,hourly; !- [J]
Output:Meter:Cumulative,EnergyTransfer:Zone:OR_NURSESTN_LOBBY_FLR_2 ZN,hourly; !- [J]
Output:Meter,Heating:EnergyTransfer:Zone:OR_NURSESTN_LOBBY_FLR_2 ZN,hourly; !- [J]
Output:Meter:Cumulative,Heating:EnergyTransfer:Zone:OR_NURSESTN_LOBBY_FLR_2 ZN,hourly; !- [J]
Output:Meter,Cooling:EnergyTransfer:Zone:OR_NURSESTN_LOBBY_FLR_2 ZN,hourly; !- [J]
Output:Meter:Cumulative,Cooling:EnergyTransfer:Zone:OR_NURSESTN_LOBBY_FLR_2 ZN,hourly; !- [J]
Output:Meter,EnergyTransfer:Zone:PATROOM1_MULT10_FLR_3 ZN,hourly; !- [J]
Output:Meter:Cumulative,EnergyTransfer:Zone:PATROOM1_MULT10_FLR_3 ZN,hourly; !- [J]
Output:Meter,Heating:EnergyTransfer:Zone:PATROOM1_MULT10_FLR_3 ZN,hourly; !- [J]
Output:Meter:Cumulative,Heating:EnergyTransfer:Zone:PATROOM1_MULT10_FLR_3 ZN,hourly; !- [J]
Output:Meter,Cooling:EnergyTransfer:Zone:PATROOM1_MULT10_FLR_3 ZN,hourly; !- [J]
Output:Meter:Cumulative,Cooling:EnergyTransfer:Zone:PATROOM1_MULT10_FLR_3 ZN,hourly; !- [J]
Output:Meter,EnergyTransfer:Zone:PATROOM1_MULT10_FLR_4 ZN,hourly; !- [J]
Output:Meter:Cumulative,EnergyTransfer:Zone:PATROOM1_MULT10_FLR_4 ZN,hourly; !- [J]
Output:Meter,Heating:EnergyTransfer:Zone:PATROOM1_MULT10_FLR_4 ZN,hourly; !- [J]
Output:Meter:Cumulative,Heating:EnergyTransfer:Zone:PATROOM1_MULT10_FLR_4 ZN,hourly; !- [J]
Output:Meter,Cooling:EnergyTransfer:Zone:PATROOM1_MULT10_FLR_4 ZN,hourly; !- [J]
Output:Meter:Cumulative,Cooling:EnergyTransfer:Zone:PATROOM1_MULT10_FLR_4 ZN,hourly; !- [J]
Output:Meter,EnergyTransfer:Zone:PATROOM2_FLR_3 ZN,hourly; !- [J]
Output:Meter:Cumulative,EnergyTransfer:Zone:PATROOM2_FLR_3 ZN,hourly; !- [J]
Output:Meter,Heating:EnergyTransfer:Zone:PATROOM2_FLR_3 ZN,hourly; !- [J]
Output:Meter:Cumulative,Heating:EnergyTransfer:Zone:PATROOM2_FLR_3 ZN,hourly; !- [J]
Output:Meter,Cooling:EnergyTransfer:Zone:PATROOM2_FLR_3 ZN,hourly; !- [J]
Output:Meter:Cumulative,Cooling:EnergyTransfer:Zone:PATROOM2_FLR_3 ZN,hourly; !- [J]
Output:Meter,EnergyTransfer:Zone:PATROOM2_FLR_4 ZN,hourly; !- [J]
Output:Meter:Cumulative,EnergyTransfer:Zone:PATROOM2_FLR_4 ZN,hourly; !- [J]
Output:Meter,Heating:EnergyTransfer:Zone:PATROOM2_FLR_4 ZN,hourly; !- [J]
Output:Meter:Cumulative,Heating:EnergyTransfer:Zone:PATROOM2_FLR_4 ZN,hourly; !- [J]
Output:Meter,Cooling:EnergyTransfer:Zone:PATROOM2_FLR_4 ZN,hourly; !- [J]
Output:Meter:Cumulative,Cooling:EnergyTransfer:Zone:PATROOM2_FLR_4 ZN,hourly; !- [J]
Output:Meter,EnergyTransfer:Zone:PATROOM3_MULT10_FLR_3 ZN,hourly; !- [J]
Output:Meter:Cumulative,EnergyTransfer:Zone:PATROOM3_MULT10_FLR_3 ZN,hourly; !- [J]
Output:Meter,Heating:EnergyTransfer:Zone:PATROOM3_MULT10_FLR_3 ZN,hourly; !- [J]
Output:Meter:Cumulative,Heating:EnergyTransfer:Zone:PATROOM3_MULT10_FLR_3 ZN,hourly; !- [J]
Output:Meter,Cooling:EnergyTransfer:Zone:PATROOM3_MULT10_FLR_3 ZN,hourly; !- [J]
Output:Meter:Cumulative,Cooling:EnergyTransfer:Zone:PATROOM3_MULT10_FLR_3 ZN,hourly; !- [J]
Output:Meter,EnergyTransfer:Zone:PATROOM3_MULT10_FLR_4 ZN,hourly; !- [J]
Output:Meter:Cumulative,EnergyTransfer:Zone:PATROOM3_MULT10_FLR_4 ZN,hourly; !- [J]
Output:Meter,Heating:EnergyTransfer:Zone:PATROOM3_MULT10_FLR_4 ZN,hourly; !- [J]
Output:Meter:Cumulative,Heating:EnergyTransfer:Zone:PATROOM3_MULT10_FLR_4 ZN,hourly; !- [J]
Output:Meter,Cooling:EnergyTransfer:Zone:PATROOM3_MULT10_FLR_4 ZN,hourly; !- [J]
Output:Meter:Cumulative,Cooling:EnergyTransfer:Zone:PATROOM3_MULT10_FLR_4 ZN,hourly; !- [J]
Output:Meter,EnergyTransfer:Zone:PATROOM4_FLR_3 ZN,hourly; !- [J]
Output:Meter:Cumulative,EnergyTransfer:Zone:PATROOM4_FLR_3 ZN,hourly; !- [J]
Output:Meter,Heating:EnergyTransfer:Zone:PATROOM4_FLR_3 ZN,hourly; !- [J]
Output:Meter:Cumulative,Heating:EnergyTransfer:Zone:PATROOM4_FLR_3 ZN,hourly; !- [J]
Output:Meter,Cooling:EnergyTransfer:Zone:PATROOM4_FLR_3 ZN,hourly; !- [J]
Output:Meter:Cumulative,Cooling:EnergyTransfer:Zone:PATROOM4_FLR_3 ZN,hourly; !- [J]
Output:Meter,EnergyTransfer:Zone:PATROOM4_FLR_4 ZN,hourly; !- [J]
Output:Meter:Cumulative,EnergyTransfer:Zone:PATROOM4_FLR_4 ZN,hourly; !- [J]
Output:Meter,Heating:EnergyTransfer:Zone:PATROOM4_FLR_4 ZN,hourly; !- [J]
Output:Meter:Cumulative,Heating:EnergyTransfer:Zone:PATROOM4_FLR_4 ZN,hourly; !- [J]
Output:Meter,Cooling:EnergyTransfer:Zone:PATROOM4_FLR_4 ZN,hourly; !- [J]
Output:Meter:Cumulative,Cooling:EnergyTransfer:Zone:PATROOM4_FLR_4 ZN,hourly; !- [J]
Output:Meter,EnergyTransfer:Zone:PATROOM5_MULT10_FLR_3 ZN,hourly; !- [J]
Output:Meter:Cumulative,EnergyTransfer:Zone:PATROOM5_MULT10_FLR_3 ZN,hourly; !- [J]
Output:Meter,Heating:EnergyTransfer:Zone:PATROOM5_MULT10_FLR_3 ZN,hourly; !- [J]
Output:Meter:Cumulative,Heating:EnergyTransfer:Zone:PATROOM5_MULT10_FLR_3 ZN,hourly; !- [J]
Output:Meter,Cooling:EnergyTransfer:Zone:PATROOM5_MULT10_FLR_3 ZN,hourly; !- [J]
Output:Meter:Cumulative,Cooling:EnergyTransfer:Zone:PATROOM5_MULT10_FLR_3 ZN,hourly; !- [J]
Output:Meter,EnergyTransfer:Zone:PATROOM5_MULT10_FLR_4 ZN,hourly; !- [J]
Output:Meter:Cumulative,EnergyTransfer:Zone:PATROOM5_MULT10_FLR_4 ZN,hourly; !- [J]
Output:Meter,Heating:EnergyTransfer:Zone:PATROOM5_MULT10_FLR_4 ZN,hourly; !- [J]
Output:Meter:Cumulative,Heating:EnergyTransfer:Zone:PATROOM5_MULT10_FLR_4 ZN,hourly; !- [J]
Output:Meter,Cooling:EnergyTransfer:Zone:PATROOM5_MULT10_FLR_4 ZN,hourly; !- [J]
Output:Meter:Cumulative,Cooling:EnergyTransfer:Zone:PATROOM5_MULT10_FLR_4 ZN,hourly; !- [J]
Output:Meter,EnergyTransfer:Zone:PATROOM6_FLR_3 ZN,hourly; !- [J]
Output:Meter:Cumulative,EnergyTransfer:Zone:PATROOM6_FLR_3 ZN,hourly; !- [J]
Output:Meter,Heating:EnergyTransfer:Zone:PATROOM6_FLR_3 ZN,hourly; !- [J]
Output:Meter:Cumulative,Heating:EnergyTransfer:Zone:PATROOM6_FLR_3 ZN,hourly; !- [J]
Output:Meter,Cooling:EnergyTransfer:Zone:PATROOM6_FLR_3 ZN,hourly; !- [J]
Output:Meter:Cumulative,Cooling:EnergyTransfer:Zone:PATROOM6_FLR_3 ZN,hourly; !- [J]
Output:Meter,EnergyTransfer:Zone:PATROOM6_FLR_4 ZN,hourly; !- [J]
Output:Meter:Cumulative,EnergyTransfer:Zone:PATROOM6_FLR_4 ZN,hourly; !- [J]
Output:Meter,Heating:EnergyTransfer:Zone:PATROOM6_FLR_4 ZN,hourly; !- [J]
Output:Meter:Cumulative,Heating:EnergyTransfer:Zone:PATROOM6_FLR_4 ZN,hourly; !- [J]
Output:Meter,Cooling:EnergyTransfer:Zone:PATROOM6_FLR_4 ZN,hourly; !- [J]
Output:Meter:Cumulative,Cooling:EnergyTransfer:Zone:PATROOM6_FLR_4 ZN,hourly; !- [J]
Output:Meter,EnergyTransfer:Zone:PATROOM7_MULT10_FLR_3 ZN,hourly; !- [J]
Output:Meter:Cumulative,EnergyTransfer:Zone:PATROOM7_MULT10_FLR_3 ZN,hourly; !- [J]
Output:Meter,Heating:EnergyTransfer:Zone:PATROOM7_MULT10_FLR_3 ZN,hourly; !- [J]
Output:Meter:Cumulative,Heating:EnergyTransfer:Zone:PATROOM7_MULT10_FLR_3 ZN,hourly; !- [J]
Output:Meter,Cooling:EnergyTransfer:Zone:PATROOM7_MULT10_FLR_3 ZN,hourly; !- [J]
Output:Meter:Cumulative,Cooling:EnergyTransfer:Zone:PATROOM7_MULT10_FLR_3 ZN,hourly; !- [J]
Output:Meter,EnergyTransfer:Zone:PATROOM7_MULT10_FLR_4 ZN,hourly; !- [J]
Output:Meter:Cumulative,EnergyTransfer:Zone:PATROOM7_MULT10_FLR_4 ZN,hourly; !- [J]
Output:Meter,Heating:EnergyTransfer:Zone:PATROOM7_MULT10_FLR_4 ZN,hourly; !- [J]
Output:Meter:Cumulative,Heating:EnergyTransfer:Zone:PATROOM7_MULT10_FLR_4 ZN,hourly; !- [J]
Output:Meter,Cooling:EnergyTransfer:Zone:PATROOM7_MULT10_FLR_4 ZN,hourly; !- [J]
Output:Meter:Cumulative,Cooling:EnergyTransfer:Zone:PATROOM7_MULT10_FLR_4 ZN,hourly; !- [J]
Output:Meter,EnergyTransfer:Zone:PATROOM8_FLR_3 ZN,hourly; !- [J]
Output:Meter:Cumulative,EnergyTransfer:Zone:PATROOM8_FLR_3 ZN,hourly; !- [J]
Output:Meter,Heating:EnergyTransfer:Zone:PATROOM8_FLR_3 ZN,hourly; !- [J]
Output:Meter:Cumulative,Heating:EnergyTransfer:Zone:PATROOM8_FLR_3 ZN,hourly; !- [J]
Output:Meter,Cooling:EnergyTransfer:Zone:PATROOM8_FLR_3 ZN,hourly; !- [J]
Output:Meter:Cumulative,Cooling:EnergyTransfer:Zone:PATROOM8_FLR_3 ZN,hourly; !- [J]
Output:Meter,EnergyTransfer:Zone:PATROOM8_FLR_4 ZN,hourly; !- [J]
Output:Meter:Cumulative,EnergyTransfer:Zone:PATROOM8_FLR_4 ZN,hourly; !- [J]
Output:Meter,Heating:EnergyTransfer:Zone:PATROOM8_FLR_4 ZN,hourly; !- [J]
Output:Meter:Cumulative,Heating:EnergyTransfer:Zone:PATROOM8_FLR_4 ZN,hourly; !- [J]
Output:Meter,Cooling:EnergyTransfer:Zone:PATROOM8_FLR_4 ZN,hourly; !- [J]
Output:Meter:Cumulative,Cooling:EnergyTransfer:Zone:PATROOM8_FLR_4 ZN,hourly; !- [J]
Output:Meter,EnergyTransfer:Zone:PHYSTHERAPY_FLR_3 ZN,hourly; !- [J]
Output:Meter:Cumulative,EnergyTransfer:Zone:PHYSTHERAPY_FLR_3 ZN,hourly; !- [J]
Output:Meter,Heating:EnergyTransfer:Zone:PHYSTHERAPY_FLR_3 ZN,hourly; !- [J]
Output:Meter:Cumulative,Heating:EnergyTransfer:Zone:PHYSTHERAPY_FLR_3 ZN,hourly; !- [J]
Output:Meter,Cooling:EnergyTransfer:Zone:PHYSTHERAPY_FLR_3 ZN,hourly; !- [J]
Output:Meter:Cumulative,Cooling:EnergyTransfer:Zone:PHYSTHERAPY_FLR_3 ZN,hourly; !- [J]
Output:Meter,EnergyTransfer:Zone:RADIOLOGY_FLR_4 ZN,hourly; !- [J]
Output:Meter:Cumulative,EnergyTransfer:Zone:RADIOLOGY_FLR_4 ZN,hourly; !- [J]
Output:Meter,Heating:EnergyTransfer:Zone:RADIOLOGY_FLR_4 ZN,hourly; !- [J]
Output:Meter:Cumulative,Heating:EnergyTransfer:Zone:RADIOLOGY_FLR_4 ZN,hourly; !- [J]
Output:Meter,Cooling:EnergyTransfer:Zone:RADIOLOGY_FLR_4 ZN,hourly; !- [J]
Output:Meter:Cumulative,Cooling:EnergyTransfer:Zone:RADIOLOGY_FLR_4 ZN,hourly; !- [J]
Output:Meter,ElectricityPurchased:Facility,hourly; !- [J]
Output:Meter:Cumulative,ElectricityPurchased:Facility,hourly; !- [J]
Output:Meter,ElectricityPurchased:Plant,hourly; !- [J]
Output:Meter:Cumulative,ElectricityPurchased:Plant,hourly; !- [J]
Output:Meter,Cogeneration:ElectricityPurchased,hourly; !- [J]
Output:Meter:Cumulative,Cogeneration:ElectricityPurchased,hourly; !- [J]
Output:Meter,ElectricitySurplusSold:Facility,hourly; !- [J]
Output:Meter:Cumulative,ElectricitySurplusSold:Facility,hourly; !- [J]
Output:Meter,ElectricitySurplusSold:Plant,hourly; !- [J]
Output:Meter:Cumulative,ElectricitySurplusSold:Plant,hourly; !- [J]
Output:Meter,Cogeneration:ElectricitySurplusSold,hourly; !- [J]
Output:Meter:Cumulative,Cogeneration:ElectricitySurplusSold,hourly; !- [J]
Output:Meter,ElectricityNet:Facility,hourly; !- [J]
Output:Meter:Cumulative,ElectricityNet:Facility,hourly; !- [J]
Output:Meter,ElectricityNet:Plant,hourly; !- [J]
Output:Meter:Cumulative,ElectricityNet:Plant,hourly; !- [J]
Output:Meter,Cogeneration:ElectricityNet,hourly; !- [J]
Output:Meter:Cumulative,Cogeneration:ElectricityNet,hourly; !- [J]
Output:Meter,DistrictHeating:Facility,hourly; !- [J]
Output:Meter:Cumulative,DistrictHeating:Facility,hourly; !- [J]
Output:Meter,DistrictHeating:HVAC,hourly; !- [J]
Output:Meter:Cumulative,DistrictHeating:HVAC,hourly; !- [J]
Output:Meter,Heating:DistrictHeating,hourly; !- [J]
Output:Meter:Cumulative,Heating:DistrictHeating,hourly; !- [J]
Output:Meter,DistrictCooling:Facility,hourly; !- [J]
Output:Meter:Cumulative,DistrictCooling:Facility,hourly; !- [J]
Output:Meter,DistrictCooling:HVAC,hourly; !- [J]
Output:Meter:Cumulative,DistrictCooling:HVAC,hourly; !- [J]
Output:Meter,Cooling:DistrictCooling,hourly; !- [J]
Output:Meter:Cumulative,Cooling:DistrictCooling,hourly; !- [J]
Output:Meter,Carbon Equivalent:Facility,hourly; !- [kg]
Output:Meter:Cumulative,Carbon Equivalent:Facility,hourly; !- [kg]
Output:Meter,CarbonEquivalentEmissions:Carbon Equivalent,hourly; !- [kg]
Output:Meter:Cumulative,CarbonEquivalentEmissions:Carbon Equivalent,hourly; !- [kg]
