Program Version,EnergyPlus, Version 8.9.0-eba93e8e1b, YMD=2018.09.18 16:56
! <Version>, Version ID
 Version, 8.9
! <Timesteps per Hour>, #TimeSteps, Minutes per TimeStep {minutes}
 Timesteps per Hour,  6, 10
! <System Convergence Limits>, Minimum System TimeStep {minutes}, Max HVAC Iterations, Minimum Plant Iterations, Maximum Plant Iterations
 System Convergence Limits, 1, 20, 2, 8
! <Simulation Control>, Do Zone Sizing, Do System Sizing, Do Plant Sizing, Do Design Days, Do Weather Simulation, Do HVAC Sizing Simulation
 Simulation Control, Yes, No, No, Yes, No, No
! <Output Reporting Tolerances>, Tolerance for Time Heating Setpoint Not Met, Tolerance for Zone Cooling Setpoint Not Met Time
 Output Reporting Tolerances, 0.200, 0.200, 
! <Site:GroundTemperature:BuildingSurface>,Jan{C},Feb{C},Mar{C},Apr{C},May{C},Jun{C},Jul{C},Aug{C},Sep{C},Oct{C},Nov{C},Dec{C}
 Site:GroundTemperature:BuildingSurface,  19.53,  19.50,  19.54,  19.60,  20.00,  21.64,  22.23,  22.38,  21.45,  20.12,  19.80,  19.63
! <Site:GroundTemperature:FCfactorMethod>,Jan{C},Feb{C},Mar{C},Apr{C},May{C},Jun{C},Jul{C},Aug{C},Sep{C},Oct{C},Nov{C},Dec{C}
 Site:GroundTemperature:FCfactorMethod,   4.64,   4.08,   5.08,   6.66,  10.79,  13.98,  16.13,  16.78,  15.67,  13.19,   9.89,   6.82
! <Site:GroundTemperature:Shallow>,Jan{C},Feb{C},Mar{C},Apr{C},May{C},Jun{C},Jul{C},Aug{C},Sep{C},Oct{C},Nov{C},Dec{C}
 Site:GroundTemperature:Shallow,  13.00,  13.00,  13.00,  13.00,  13.00,  13.00,  13.00,  13.00,  13.00,  13.00,  13.00,  13.00
! <Site:GroundTemperature:Deep>,Jan{C},Feb{C},Mar{C},Apr{C},May{C},Jun{C},Jul{C},Aug{C},Sep{C},Oct{C},Nov{C},Dec{C}
 Site:GroundTemperature:Deep,  16.00,  16.00,  16.00,  16.00,  16.00,  16.00,  16.00,  16.00,  16.00,  16.00,  16.00,  16.00
! <Site:GroundReflectance>,Jan{dimensionless},Feb{dimensionless},Mar{dimensionless},Apr{dimensionless},May{dimensionless},Jun{dimensionless},Jul{dimensionless},Aug{dimensionless},Sep{dimensionless},Oct{dimensionless},Nov{dimensionless},Dec{dimensionless}
 Site:GroundReflectance,  0.20,  0.20,  0.20,  0.20,  0.20,  0.20,  0.20,  0.20,  0.20,  0.20,  0.20,  0.20
! <Site:GroundReflectance:SnowModifier>, Normal, Daylighting {dimensionless}
 Site:GroundReflectance:SnowModifier,   1.000,   1.000
! <Site:GroundReflectance:Snow>,Jan{dimensionless},Feb{dimensionless},Mar{dimensionless},Apr{dimensionless},May{dimensionless},Jun{dimensionless},Jul{dimensionless},Aug{dimensionless},Sep{dimensionless},Oct{dimensionless},Nov{dimensionless},Dec{dimensionless}
 Site:GroundReflectance:Snow,  0.20,  0.20,  0.20,  0.20,  0.20,  0.20,  0.20,  0.20,  0.20,  0.20,  0.20,  0.20
! <Site:GroundReflectance:Snow:Daylighting>,Jan{dimensionless},Feb{dimensionless},Mar{dimensionless},Apr{dimensionless},May{dimensionless},Jun{dimensionless},Jul{dimensionless},Aug{dimensionless},Sep{dimensionless},Oct{dimensionless},Nov{dimensionless},Dec{dimensionless}
 Site:GroundReflectance:Snow:Daylighting,  0.20,  0.20,  0.20,  0.20,  0.20,  0.20,  0.20,  0.20,  0.20,  0.20,  0.20,  0.20
! <Environment:Weather Station>,Wind Sensor Height Above Ground {m},Wind Speed Profile Exponent {},Wind Speed Profile Boundary Layer Thickness {m},Air Temperature Sensor Height Above Ground {m},Wind Speed Modifier Coefficient-Internal,Temperature Modifier Coefficient-Internal
Environment:Weather Station,10.000,0.140,270.000,1.500,1.586,9.750E-003
! <Site:Location>, Location Name, Latitude {N+/S- Deg}, Longitude {E+/W- Deg},  Time Zone Number {GMT+/-}, Elevation {m},  Standard Pressure at Elevation {Pa}, Standard RhoAir at Elevation
Site:Location,Vancouver Intl AP BC CAN CWEC2016 WMO#=718920,49.20,-123.18,-8.00,4.30,101273,1.2037
! <Building Information>, Building Name,North Axis {deg},Terrain,  Loads Convergence Tolerance Value,Temperature Convergence Tolerance Value,  Solar Distribution,Maximum Number of Warmup Days,Minimum Number of Warmup Days
 Building Information,Hospital-CAN_BC_Vancouver.Intl.AP.718920_CWEC2016.epw created: 2018-09-18 16:56:11 +0000,0.000,Suburbs,4.00000E-002,0.40000,FullExterior,25,6
! <Inside Convection Algorithm>, Algorithm {Simple | TARP | CeilingDiffuser | AdaptiveConvectionAlgorithm}
Inside Convection Algorithm,TARP
! <Outside Convection Algorithm>, Algorithm {SimpleCombined | TARP | MoWitt | DOE-2 | AdaptiveConvectionAlgorithm}
Outside Convection Algorithm,TARP
! <Sky Radiance Distribution>, Value {Anisotropic}
Sky Radiance Distribution,Anisotropic
! <Zone Air Solution Algorithm>, Value {ThirdOrderBackwardDifference | AnalyticalSolution | EulerMethod}
 Zone Air Solution Algorithm, ThirdOrderBackwardDifference
! <Zone Air Carbon Dioxide Balance Simulation>, Simulation {Yes/No}, Carbon Dioxide Concentration
 Zone Air Carbon Dioxide Balance Simulation, No,N/A
! <Zone Air Generic Contaminant Balance Simulation>, Simulation {Yes/No}, Generic Contaminant Concentration
 Zone Air Generic Contaminant Balance Simulation, No,N/A
! <Zone Air Mass Flow Balance Simulation>, Enforce Mass Balance, Adjust Zone Mixing, Adjust Zone Infiltration {AddInfiltration | AdjustInfiltration | None}, Infiltration Zones {MixingSourceZonesOnly | AllZones}
 Zone Air Mass Flow Balance Simulation, No,N/A,N/A,N/A
! <HVACSystemRootFindingAlgorithm>, Value {RegulaFalsi | Bisection | BisectionThenRegulaFalsi | RegulaFalsiThenBisection}
 HVACSystemRootFindingAlgorithm, RegulaFalsi
! <Environment:Site Atmospheric Variation>,Wind Speed Profile Exponent {},Wind Speed Profile Boundary Layer Thickness {m},Air Temperature Gradient Coefficient {K/m}
Environment:Site Atmospheric Variation,0.220,370.000,6.500000E-003
! <Surface Geometry>,Starting Corner,Vertex Input Direction,Coordinate System,Daylight Reference Point Coordinate System,Rectangular (Simple) Surface Coordinate System
 Surface Geometry,UpperLeftCorner,Counterclockwise,RelativeCoordinateSystem,RelativeCoordinateSystem,RelativeToZoneOrigin
! <Surface Heat Transfer Algorithm>, Value {CTF - ConductionTransferFunction | EMPD - MoisturePenetrationDepthConductionTransferFunction | CondFD - ConductionFiniteDifference | HAMT - CombinedHeatAndMoistureFiniteElement} - Description,Inside Surface Max Temperature Limit{C}, Surface Convection Coefficient Lower Limit {W/m2-K}, Surface Convection Coefficient Upper Limit {W/m2-K}
Surface Heat Transfer Algorithm, CTF - ConductionTransferFunction,200,0.10,1000.0
! <Shading Summary>, Number of Fixed Detached Shades, Number of Building Detached Shades, Number of Attached Shades
 Shading Summary,0,0,0
! <Zone Summary>, Number of Zones, Number of Zone Surfaces, Number of SubSurfaces
 Zone Summary,55,630,38
! <Zone Information>,Zone Name,North Axis {deg},Origin X-Coordinate {m},Origin Y-Coordinate {m},Origin Z-Coordinate {m},Centroid X-Coordinate {m},Centroid Y-Coordinate {m},Centroid Z-Coordinate {m},Type,Zone Multiplier,Zone List Multiplier,Minimum X {m},Maximum X {m},Minimum Y {m},Maximum Y {m},Minimum Z {m},Maximum Z {m},Ceiling Height {m},Volume {m3},Zone Inside Convection Algorithm {Simple-Detailed-CeilingDiffuser-TrombeWall},Zone Outside Convection Algorithm {Simple-Detailed-Tarp-MoWitt-DOE-2-BLAST}, Floor Area {m2},Exterior Gross Wall Area {m2},Exterior Net Wall Area {m2},Exterior Window Area {m2}, Number of Surfaces, Number of SubSurfaces, Number of Shading SubSurfaces,  Part of Total Building Area
 Zone Information, BASEMENT ZN,0.0,0.00,0.00,-2.44,35.05,26.67,-1.22,1,1,1,0.00,70.10,0.00,53.34,-2.44,0.00,2.44,9118.02,TARP,TARP,3739.35,0.00,0.00,0.00,22,0,0,Yes
 Zone Information, CORRIDOR_FLR_1 ZN,0.0,39.62,0.00,0.00,34.29,26.67,2.13,1,1,1,28.96,39.62,0.00,53.34,0.00,4.27,4.27,2428.17,TARP,TARP,569.03,91.04,91.04,0.00,8,0,0,Yes
 Zone Information, CORRIDOR_FLR_2 ZN,0.0,28.96,48.77,4.27,34.29,26.67,6.40,1,1,1,28.96,39.62,-9.95E-014,53.34,4.27,8.53,4.27,2428.17,TARP,TARP,569.03,91.04,91.04,0.00,12,0,0,Yes
 Zone Information, CORRIDOR_FLR_5 ZN,0.0,9.14,7.62,17.07,18.84,33.33,19.20,1,1,1,9.14,39.62,0.00,53.34,17.07,21.34,4.27,2140.75,TARP,TARP,501.68,78.04,78.04,0.00,21,0,0,Yes
 Zone Information, CORRIDOR_NW_FLR_3 ZN,0.0,4.57,48.77,8.53,27.79,40.09,10.67,1,1,1,4.57,65.53,10.67,53.34,8.53,12.80,4.27,2418.26,TARP,TARP,566.71,45.52,45.52,0.00,26,0,0,Yes
 Zone Information, CORRIDOR_NW_FLR_4 ZN,0.0,9.14,10.67,12.80,27.55,40.58,14.94,1,1,1,4.57,65.53,10.67,53.34,12.80,17.07,4.27,2418.26,TARP,TARP,566.71,45.52,45.52,0.00,23,0,0,Yes
 Zone Information, CORRIDOR_SE_FLR_3 ZN,0.0,39.62,4.57,8.53,42.36,13.12,10.67,1,1,1,4.57,65.53,0.00,42.67,8.53,12.80,4.27,2418.26,TARP,TARP,566.71,45.52,45.52,0.00,24,0,0,Yes
 Zone Information, CORRIDOR_SE_FLR_4 ZN,0.0,6.10,4.57,12.80,42.13,13.09,14.94,1,1,1,4.57,65.53,9.77E-015,42.67,12.80,17.07,4.27,2418.26,TARP,TARP,566.71,45.52,45.52,0.00,25,0,0,Yes
 Zone Information, DINING_FLR_5 ZN,0.0,70.10,0.00,17.07,54.87,11.74,19.20,1,1,1,39.62,70.10,0.00,22.86,17.07,21.34,4.27,2973.27,TARP,TARP,696.77,227.61,191.84,35.77,13,1,0,Yes
 Zone Information, ER_EXAM1_MULT4_FLR_1 ZN,0.0,39.62,4.57,0.00,42.67,2.29,2.13,1,4,1,39.62,45.72,1.95E-014,4.57,0.00,4.27,4.27,118.93,TARP,TARP,27.87,26.01,26.01,0.00,6,0,0,Yes
 Zone Information, ER_EXAM3_MULT4_FLR_1 ZN,0.0,70.10,9.14,0.00,67.06,6.86,2.13,1,4,1,64.01,70.10,4.57,9.14,0.00,4.27,4.27,118.93,TARP,TARP,27.87,19.51,19.51,0.00,6,0,0,Yes
 Zone Information, ER_NURSESTN_LOBBY_FLR_1 ZN,0.0,70.10,39.62,0.00,53.84,26.67,2.13,1,1,1,39.62,70.10,4.57,48.77,0.00,4.27,4.27,5272.60,TARP,TARP,1235.61,110.55,80.11,30.44,23,1,0,Yes
 Zone Information, ER_TRAUMA1_FLR_1 ZN,0.0,64.01,0.00,0.00,67.06,2.29,2.13,1,1,1,64.01,70.10,0.00,4.57,0.00,4.27,4.27,118.93,TARP,TARP,27.87,45.52,45.52,0.00,6,0,0,Yes
 Zone Information, ER_TRAUMA2_FLR_1 ZN,0.0,70.10,48.77,0.00,67.06,51.05,2.13,1,1,1,64.01,70.10,48.77,53.34,0.00,4.27,4.27,118.93,TARP,TARP,27.87,45.52,45.52,0.00,6,0,0,Yes
 Zone Information, ER_TRIAGE_MULT4_FLR_1 ZN,0.0,39.62,48.77,0.00,42.67,51.05,2.13,1,4,1,39.62,45.72,48.77,53.34,0.00,4.27,4.27,118.93,TARP,TARP,27.87,26.01,26.01,0.00,6,0,0,Yes
 Zone Information, ICU_FLR_2 ZN,0.0,0.00,0.00,4.27,14.21,9.14,6.40,1,1,1,0.00,28.96,0.00,21.34,4.27,8.53,4.27,2636.98,TARP,TARP,617.96,214.63,189.59,25.04,16,1,0,Yes
 Zone Information, ICU_NURSESTN_LOBBY_FLR_2 ZN,0.0,28.96,21.34,4.27,16.42,34.59,6.40,1,1,1,4.57,28.96,21.34,48.77,4.27,8.53,4.27,2853.77,TARP,TARP,668.77,0.00,0.00,0.00,11,0,0,Yes
 Zone Information, IC_PATROOM1_MULT5_FLR_2 ZN,0.0,24.38,53.34,4.27,26.67,51.05,6.40,1,5,1,24.38,28.96,48.77,53.34,4.27,8.53,4.27,89.20,TARP,TARP,20.90,19.51,19.51,0.00,6,0,0,Yes
 Zone Information, IC_PATROOM2_FLR_2 ZN,0.0,0.00,53.34,4.27,3.05,51.05,6.40,1,1,1,0.00,6.10,48.77,53.34,4.27,8.53,4.27,118.93,TARP,TARP,27.87,45.52,40.62,4.91,7,1,0,Yes
 Zone Information, IC_PATROOM3_MULT6_FLR_2 ZN,0.0,0.00,44.20,4.27,2.29,46.48,6.40,1,6,1,0.00,4.57,44.20,48.77,4.27,8.53,4.27,89.20,TARP,TARP,20.90,19.51,14.60,4.91,6,1,0,Yes
 Zone Information, KITCHEN_FLR_5 ZN,0.0,39.62,22.86,17.07,54.86,38.10,19.20,1,1,1,39.62,70.10,22.86,53.34,17.07,21.34,4.27,3964.36,TARP,TARP,929.03,260.13,260.13,0.00,13,0,0,Yes
 Zone Information, LAB_FLR_3 ZN,0.0,9.14,10.67,8.53,16.93,20.39,10.67,1,1,1,9.14,28.96,10.67,33.53,8.53,12.80,4.27,1129.84,TARP,TARP,264.77,0.00,0.00,0.00,9,0,0,Yes
 Zone Information, LAB_FLR_4 ZN,0.0,9.14,10.67,12.80,17.13,20.01,14.94,1,1,1,9.14,28.96,10.67,33.53,12.80,17.07,4.27,1129.84,TARP,TARP,264.77,0.00,0.00,0.00,9,0,0,Yes
 Zone Information, LOBBY_RECORDS_FLR_1 ZN,0.0,0.00,53.34,0.00,14.43,26.63,2.13,1,1,1,0.00,28.96,0.00,53.34,0.00,4.27,4.27,6293.31,TARP,TARP,1474.81,409.68,347.00,62.67,19,1,0,Yes
 Zone Information, NURSESTN_LOBBY_FLR_3 ZN,0.0,9.14,42.67,8.53,31.73,25.67,10.67,1,1,1,9.14,60.96,10.67,42.67,8.53,12.80,4.27,3865.25,TARP,TARP,905.80,0.00,0.00,0.00,16,0,0,Yes
 Zone Information, NURSESTN_LOBBY_FLR_4 ZN,0.0,60.96,10.67,12.80,31.97,24.58,14.94,1,1,1,9.14,60.96,10.67,42.67,12.80,17.07,4.27,3865.25,TARP,TARP,905.80,0.00,0.00,0.00,15,0,0,Yes
 Zone Information, NURSESTN_LOBBY_FLR_5 ZN,0.0,39.62,22.86,17.07,27.22,20.14,19.20,1,1,1,15.24,39.62,0.00,42.67,17.07,21.34,4.27,4440.08,TARP,TARP,1040.51,104.05,104.05,0.00,10,0,0,Yes
 Zone Information, OFFICE1_FLR_5 ZN,0.0,0.00,7.62,17.07,4.57,3.81,19.20,1,1,1,0.00,9.14,0.00,7.62,17.07,21.34,4.27,297.40,TARP,TARP,69.70,71.54,53.56,17.98,9,2,0,Yes
 Zone Information, OFFICE1_MULT4_FLR_1 ZN,0.0,9.14,0.00,0.00,7.62,2.29,2.13,1,5,1,6.10,9.14,0.00,4.57,0.00,4.27,4.27,59.47,TARP,TARP,13.94,13.01,10.04,2.97,6,1,0,Yes
 Zone Information, OFFICE2_MULT5_FLR_5 ZN,0.0,0.00,7.62,17.07,4.57,11.43,19.20,1,5,1,0.00,9.14,7.62,15.24,17.07,21.34,4.27,297.25,TARP,TARP,69.66,32.51,24.33,8.18,9,1,0,Yes
 Zone Information, OFFICE3_FLR_5 ZN,0.0,0.00,53.34,17.07,4.57,49.53,19.20,1,1,1,0.00,9.14,45.72,53.34,17.07,21.34,4.27,297.33,TARP,TARP,69.68,71.54,53.55,17.98,10,2,0,Yes
 Zone Information, OFFICE4_MULT6_FLR_5 ZN,0.0,9.14,53.34,17.07,10.67,51.05,19.20,1,6,1,9.14,12.19,48.77,53.34,17.07,21.34,4.27,59.47,TARP,TARP,13.94,13.01,10.04,2.96,6,1,0,Yes
 Zone Information, OR1_FLR_2 ZN,0.0,70.10,47.24,4.27,65.53,50.29,6.40,1,1,1,60.96,70.10,47.24,53.34,4.27,8.53,4.27,237.86,TARP,TARP,55.74,65.03,65.03,0.00,12,0,0,Yes
 Zone Information, OR2_MULT5_FLR_2 ZN,0.0,60.96,47.24,4.27,65.53,44.20,6.40,1,5,1,60.96,70.10,41.15,47.24,4.27,8.53,4.27,237.86,TARP,TARP,55.74,26.01,26.01,0.00,9,0,0,Yes
 Zone Information, OR3_FLR_2 ZN,0.0,39.62,47.24,4.27,44.20,50.29,6.40,1,1,1,39.62,48.77,47.24,53.34,4.27,8.53,4.27,237.86,TARP,TARP,55.74,39.02,39.02,0.00,10,0,0,Yes
 Zone Information, OR4_FLR_2 ZN,0.0,39.62,47.24,4.27,44.20,35.05,6.40,1,1,1,39.62,48.77,22.86,47.24,4.27,8.53,4.27,951.45,TARP,TARP,222.97,0.00,0.00,0.00,7,0,0,Yes
 Zone Information, OR_NURSESTN_LOBBY_FLR_2 ZN,0.0,70.10,0.00,4.27,53.96,21.28,6.40,1,1,1,39.62,70.10,0.00,53.34,4.27,8.53,4.27,4321.15,TARP,TARP,1012.64,253.63,217.86,35.77,31,1,0,Yes
 Zone Information, PATROOM1_MULT10_FLR_3 ZN,0.0,44.20,0.00,8.53,41.91,2.29,10.67,1,10,1,39.62,44.20,0.00,4.57,8.53,12.80,4.27,89.20,TARP,TARP,20.90,19.51,14.61,4.90,6,1,0,Yes
 Zone Information, PATROOM1_MULT10_FLR_4 ZN,0.0,44.20,0.00,12.80,41.91,2.29,14.94,1,10,1,39.62,44.20,0.00,4.57,12.80,17.07,4.27,89.20,TARP,TARP,20.90,19.51,14.61,4.90,6,1,0,Yes
 Zone Information, PATROOM2_FLR_3 ZN,0.0,70.10,4.57,8.53,66.29,2.29,10.67,1,1,1,62.48,70.10,0.00,4.57,8.53,12.80,4.27,148.66,TARP,TARP,34.84,52.03,38.94,13.08,7,2,0,Yes
 Zone Information, PATROOM2_FLR_4 ZN,0.0,70.10,4.57,12.80,66.29,2.29,14.94,1,1,1,62.48,70.10,9.77E-015,4.57,12.80,17.07,4.27,148.66,TARP,TARP,34.84,52.03,38.94,13.08,7,2,0,Yes
 Zone Information, PATROOM3_MULT10_FLR_3 ZN,0.0,70.10,8.99,8.53,67.82,6.78,10.67,1,10,1,65.53,70.10,4.57,8.99,8.53,12.80,4.27,86.23,TARP,TARP,20.21,18.86,14.12,4.74,6,1,0,Yes
 Zone Information, PATROOM3_MULT10_FLR_4 ZN,0.0,70.10,8.99,12.80,67.82,6.78,14.94,1,10,1,65.53,70.10,4.57,8.99,12.80,17.07,4.27,86.23,TARP,TARP,20.21,18.86,14.12,4.74,6,1,0,Yes
 Zone Information, PATROOM4_FLR_3 ZN,0.0,62.48,53.34,8.53,66.29,51.05,10.67,1,1,1,62.48,70.10,48.77,53.34,8.53,12.80,4.27,148.66,TARP,TARP,34.84,52.03,38.94,13.08,7,2,0,Yes
 Zone Information, PATROOM4_FLR_4 ZN,0.0,62.48,53.34,12.80,66.29,51.05,14.94,1,1,1,62.48,70.10,48.77,53.34,12.80,17.07,4.27,148.66,TARP,TARP,34.84,52.03,38.94,13.08,7,2,0,Yes
 Zone Information, PATROOM5_MULT10_FLR_3 ZN,0.0,39.62,53.34,8.53,41.91,51.05,10.67,1,10,1,39.62,44.20,48.77,53.34,8.53,12.80,4.27,89.20,TARP,TARP,20.90,19.51,14.60,4.91,6,1,0,Yes
 Zone Information, PATROOM5_MULT10_FLR_4 ZN,0.0,39.62,53.34,12.80,41.91,51.05,14.94,1,10,1,39.62,44.20,48.77,53.34,12.80,17.07,4.27,89.20,TARP,TARP,20.90,19.51,14.60,4.91,6,1,0,Yes
 Zone Information, PATROOM6_FLR_3 ZN,0.0,6.10,0.00,8.53,3.05,2.29,10.67,1,1,1,0.00,6.10,0.00,4.57,8.53,12.80,4.27,118.93,TARP,TARP,27.87,45.52,34.07,11.45,7,2,0,Yes
 Zone Information, PATROOM6_FLR_4 ZN,0.0,6.10,0.00,12.80,3.05,2.29,14.94,1,1,1,0.00,6.10,0.00,4.57,12.80,17.07,4.27,118.93,TARP,TARP,27.87,45.52,34.08,11.45,7,2,0,Yes
 Zone Information, PATROOM7_MULT10_FLR_3 ZN,0.0,0.00,4.57,8.53,2.29,6.78,10.67,1,10,1,0.00,4.57,4.57,8.99,8.53,12.80,4.27,86.23,TARP,TARP,20.21,18.86,14.11,4.75,6,1,0,Yes
 Zone Information, PATROOM7_MULT10_FLR_4 ZN,0.0,0.00,4.57,12.80,2.29,6.78,14.94,1,10,1,0.00,4.57,4.57,8.99,12.80,17.07,4.27,86.23,TARP,TARP,20.21,18.86,14.12,4.74,7,1,0,Yes
 Zone Information, PATROOM8_FLR_3 ZN,0.0,0.00,53.34,8.53,3.05,51.05,10.67,1,1,1,0.00,6.10,48.77,53.34,8.53,12.80,4.27,118.93,TARP,TARP,27.87,45.52,34.07,11.45,7,2,0,Yes
 Zone Information, PATROOM8_FLR_4 ZN,0.0,0.00,53.34,12.80,3.05,51.05,14.94,1,1,1,0.00,6.10,48.77,53.34,12.80,17.07,4.27,118.93,TARP,TARP,27.87,45.52,34.06,11.46,7,2,0,Yes
 Zone Information, PHYSTHERAPY_FLR_3 ZN,0.0,39.62,42.67,8.53,49.36,30.81,10.67,1,1,1,39.62,60.96,19.81,42.67,8.53,12.80,4.27,2081.29,TARP,TARP,487.74,0.00,0.00,0.00,7,0,0,Yes
 Zone Information, RADIOLOGY_FLR_4 ZN,0.0,60.96,42.67,12.80,50.29,31.24,14.94,1,1,1,39.62,60.96,19.81,42.67,12.80,17.07,4.27,2081.29,TARP,TARP,487.74,0.00,0.00,0.00,7,0,0,Yes
! <Zone Internal Gains Nominal>,Zone Name, Floor Area {m2},# Occupants,Area per Occupant {m2/person},Occupant per Area {person/m2},Interior Lighting {W/m2},Electric Load {W/m2},Gas Load {W/m2},Other Load {W/m2},Hot Water Eq {W/m2},Steam Equipment {W/m2},Sum Loads per Area {W/m2},Outdoor Controlled Baseboard Heat
 Zone Internal Gains Nominal, BASEMENT ZN,3739.35,187.0,19.993,5.002E-002,19.507,10.004,0.000,0.000,0.000,0.000,29.511,No
 Zone Internal Gains Nominal, CORRIDOR_FLR_1 ZN,569.03,5.7,99.964,1.000E-002,10.704,0.000,0.000,0.000,0.000,0.000,10.704,No
 Zone Internal Gains Nominal, CORRIDOR_FLR_2 ZN,569.03,5.7,99.964,1.000E-002,10.704,0.000,0.000,0.000,0.000,0.000,10.704,No
 Zone Internal Gains Nominal, CORRIDOR_FLR_5 ZN,501.68,5.0,99.964,1.000E-002,10.704,0.000,0.000,0.000,0.000,0.000,10.704,No
 Zone Internal Gains Nominal, CORRIDOR_NW_FLR_3 ZN,566.71,5.7,99.964,1.000E-002,10.704,0.000,0.000,0.000,0.000,0.000,10.704,No
 Zone Internal Gains Nominal, CORRIDOR_NW_FLR_4 ZN,566.71,5.7,99.964,1.000E-002,10.704,0.000,0.000,0.000,0.000,0.000,10.704,No
 Zone Internal Gains Nominal, CORRIDOR_SE_FLR_3 ZN,566.71,5.7,99.964,1.000E-002,10.704,0.000,0.000,0.000,0.000,0.000,10.704,No
 Zone Internal Gains Nominal, CORRIDOR_SE_FLR_4 ZN,566.71,5.7,99.964,1.000E-002,10.704,0.000,0.000,0.000,0.000,0.000,10.704,No
 Zone Internal Gains Nominal, DINING_FLR_5 ZN,696.77,69.7,9.996,0.100,11.604,1.000,0.000,0.000,0.000,0.000,12.605,No
 Zone Internal Gains Nominal, ER_EXAM1_MULT4_FLR_1 ZN,27.87,1.4,19.993,5.002E-002,26.810,10.004,0.000,0.000,0.000,0.000,36.813,No
 Zone Internal Gains Nominal, ER_EXAM3_MULT4_FLR_1 ZN,27.87,1.4,19.993,5.002E-002,26.810,10.004,0.000,0.000,0.000,0.000,36.813,No
 Zone Internal Gains Nominal, ER_NURSESTN_LOBBY_FLR_1 ZN,1235.61,61.8,19.993,5.002E-002,7.603,2.501,0.000,0.000,0.000,0.000,10.104,No
 Zone Internal Gains Nominal, ER_TRAUMA1_FLR_1 ZN,27.87,1.4,19.993,5.002E-002,26.810,10.004,0.000,0.000,0.000,0.000,36.813,No
 Zone Internal Gains Nominal, ER_TRAUMA2_FLR_1 ZN,27.87,1.4,19.993,5.002E-002,26.810,10.004,0.000,0.000,0.000,0.000,36.813,No
 Zone Internal Gains Nominal, ER_TRIAGE_MULT4_FLR_1 ZN,27.87,1.4,19.993,5.002E-002,26.810,10.004,0.000,0.000,0.000,0.000,36.813,No
 Zone Internal Gains Nominal, ICU_FLR_2 ZN,617.96,30.9,19.993,5.002E-002,12.405,10.004,0.000,0.000,0.000,0.000,22.408,No
 Zone Internal Gains Nominal, ICU_NURSESTN_LOBBY_FLR_2 ZN,668.77,33.5,19.993,5.002E-002,7.603,2.501,0.000,0.000,0.000,0.000,10.104,No
 Zone Internal Gains Nominal, IC_PATROOM1_MULT5_FLR_2 ZN,20.90,1.0,19.993,5.002E-002,6.702,10.004,0.000,0.000,0.000,0.000,16.706,No
 Zone Internal Gains Nominal, IC_PATROOM2_FLR_2 ZN,27.87,1.4,19.993,5.002E-002,6.702,10.004,0.000,0.000,0.000,0.000,16.706,No
 Zone Internal Gains Nominal, IC_PATROOM3_MULT6_FLR_2 ZN,20.90,1.0,19.993,5.002E-002,6.702,10.004,0.000,0.000,0.000,0.000,16.706,No
 Zone Internal Gains Nominal, KITCHEN_FLR_5 ZN,929.03,46.5,19.993,5.002E-002,13.105,10.004,0.000,0.000,0.000,0.000,23.108,No
 Zone Internal Gains Nominal, LAB_FLR_3 ZN,264.77,13.2,19.993,5.002E-002,19.507,10.004,0.000,0.000,0.000,0.000,29.511,No
 Zone Internal Gains Nominal, LAB_FLR_4 ZN,264.77,13.2,19.993,5.002E-002,19.507,10.004,0.000,0.000,0.000,0.000,29.511,No
 Zone Internal Gains Nominal, LOBBY_RECORDS_FLR_1 ZN,1474.81,73.8,19.993,5.002E-002,12.004,7.503,0.000,0.000,0.000,0.000,19.507,No
 Zone Internal Gains Nominal, NURSESTN_LOBBY_FLR_3 ZN,905.80,45.3,19.993,5.002E-002,7.603,2.501,0.000,0.000,0.000,0.000,10.104,No
 Zone Internal Gains Nominal, NURSESTN_LOBBY_FLR_4 ZN,905.80,45.3,19.993,5.002E-002,7.603,2.501,0.000,0.000,0.000,0.000,10.104,No
 Zone Internal Gains Nominal, NURSESTN_LOBBY_FLR_5 ZN,1040.51,52.0,19.993,5.002E-002,7.603,2.501,0.000,0.000,0.000,0.000,10.104,No
 Zone Internal Gains Nominal, OFFICE1_FLR_5 ZN,69.70,3.5,19.993,5.002E-002,12.004,7.503,0.000,0.000,0.000,0.000,19.507,No
 Zone Internal Gains Nominal, OFFICE1_MULT4_FLR_1 ZN,13.94,0.7,19.993,5.002E-002,12.004,7.503,0.000,0.000,0.000,0.000,19.507,No
 Zone Internal Gains Nominal, OFFICE2_MULT5_FLR_5 ZN,69.66,3.5,19.993,5.002E-002,12.004,7.503,0.000,0.000,0.000,0.000,19.507,No
 Zone Internal Gains Nominal, OFFICE3_FLR_5 ZN,69.68,3.5,19.993,5.002E-002,12.004,7.503,0.000,0.000,0.000,0.000,19.507,No
 Zone Internal Gains Nominal, OFFICE4_MULT6_FLR_5 ZN,13.94,0.7,19.993,5.002E-002,12.004,7.503,0.000,0.000,0.000,0.000,19.507,No
 Zone Internal Gains Nominal, OR1_FLR_2 ZN,55.74,2.8,19.993,5.002E-002,26.810,10.004,0.000,0.000,0.000,0.000,36.813,No
 Zone Internal Gains Nominal, OR2_MULT5_FLR_2 ZN,55.74,2.8,19.993,5.002E-002,26.810,10.004,0.000,0.000,0.000,0.000,36.813,No
 Zone Internal Gains Nominal, OR3_FLR_2 ZN,55.74,2.8,19.993,5.002E-002,26.810,10.004,0.000,0.000,0.000,0.000,36.813,No
 Zone Internal Gains Nominal, OR4_FLR_2 ZN,222.97,11.2,19.993,5.002E-002,26.810,10.004,0.000,0.000,0.000,0.000,36.813,No
 Zone Internal Gains Nominal, OR_NURSESTN_LOBBY_FLR_2 ZN,1012.64,50.7,19.993,5.002E-002,7.603,2.501,0.000,0.000,0.000,0.000,10.104,No
 Zone Internal Gains Nominal, PATROOM1_MULT10_FLR_3 ZN,20.90,1.0,19.993,5.002E-002,6.702,10.004,0.000,0.000,0.000,0.000,16.706,No
 Zone Internal Gains Nominal, PATROOM1_MULT10_FLR_4 ZN,20.90,1.0,19.993,5.002E-002,6.702,10.004,0.000,0.000,0.000,0.000,16.706,No
 Zone Internal Gains Nominal, PATROOM2_FLR_3 ZN,34.84,1.7,19.993,5.002E-002,6.702,10.004,0.000,0.000,0.000,0.000,16.706,No
 Zone Internal Gains Nominal, PATROOM2_FLR_4 ZN,34.84,1.7,19.993,5.002E-002,6.702,10.004,0.000,0.000,0.000,0.000,16.706,No
 Zone Internal Gains Nominal, PATROOM3_MULT10_FLR_3 ZN,20.21,1.0,19.993,5.002E-002,6.702,10.004,0.000,0.000,0.000,0.000,16.706,No
 Zone Internal Gains Nominal, PATROOM3_MULT10_FLR_4 ZN,20.21,1.0,19.993,5.002E-002,6.702,10.004,0.000,0.000,0.000,0.000,16.706,No
 Zone Internal Gains Nominal, PATROOM4_FLR_3 ZN,34.84,1.7,19.993,5.002E-002,6.702,10.004,0.000,0.000,0.000,0.000,16.706,No
 Zone Internal Gains Nominal, PATROOM4_FLR_4 ZN,34.84,1.7,19.993,5.002E-002,6.702,10.004,0.000,0.000,0.000,0.000,16.706,No
 Zone Internal Gains Nominal, PATROOM5_MULT10_FLR_3 ZN,20.90,1.0,19.993,5.002E-002,6.702,10.004,0.000,0.000,0.000,0.000,16.706,No
 Zone Internal Gains Nominal, PATROOM5_MULT10_FLR_4 ZN,20.90,1.0,19.993,5.002E-002,6.702,10.004,0.000,0.000,0.000,0.000,16.706,No
 Zone Internal Gains Nominal, PATROOM6_FLR_3 ZN,27.87,1.4,19.993,5.002E-002,6.702,10.004,0.000,0.000,0.000,0.000,16.706,No
 Zone Internal Gains Nominal, PATROOM6_FLR_4 ZN,27.87,1.4,19.993,5.002E-002,6.702,10.004,0.000,0.000,0.000,0.000,16.706,No
 Zone Internal Gains Nominal, PATROOM7_MULT10_FLR_3 ZN,20.21,1.0,19.993,5.002E-002,6.702,10.004,0.000,0.000,0.000,0.000,16.706,No
 Zone Internal Gains Nominal, PATROOM7_MULT10_FLR_4 ZN,20.21,1.0,19.993,5.002E-002,6.702,10.004,0.000,0.000,0.000,0.000,16.706,No
 Zone Internal Gains Nominal, PATROOM8_FLR_3 ZN,27.87,1.4,19.993,5.002E-002,6.702,10.004,0.000,0.000,0.000,0.000,16.706,No
 Zone Internal Gains Nominal, PATROOM8_FLR_4 ZN,27.87,1.4,19.993,5.002E-002,6.702,10.004,0.000,0.000,0.000,0.000,16.706,No
 Zone Internal Gains Nominal, PHYSTHERAPY_FLR_3 ZN,487.74,24.4,19.993,5.002E-002,9.904,10.004,0.000,0.000,0.000,0.000,19.907,No
 Zone Internal Gains Nominal, RADIOLOGY_FLR_4 ZN,487.74,24.4,19.993,5.002E-002,16.306,10.004,0.000,0.000,0.000,0.000,26.310,No
! <People Internal Gains Nominal>,Name,Schedule Name,Zone Name,Zone Floor Area {m2},# Zone Occupants,Number of People {},People/Floor Area {person/m2},Floor Area per person {m2/person},Fraction Radiant,Fraction Convected,Sensible Fraction Calculation,Activity level,ASHRAE 55 Warnings,Carbon Dioxide Generation Rate,Nominal Minimum Number of People,Nominal Maximum Number of People
 People Internal Gains Nominal, CORRIDOR_FLR_1 ZN SPACE FUNCTION CORRIDOR/TRANSITION AREA - HOSPITAL-SCH-B PEOPLE,NECB-B-OCCUPANCY,CORRIDOR_FLR_1 ZN,569.03,5.7,5.7,1.000E-002,99.964,0.300,0.700,AutoCalculate,NECB-ACTIVITY,No,3.8200E-008,0,5
 People Internal Gains Nominal, CORRIDOR_FLR_2 ZN SPACE FUNCTION CORRIDOR/TRANSITION AREA - HOSPITAL-SCH-B PEOPLE,NECB-B-OCCUPANCY,CORRIDOR_FLR_2 ZN,569.03,5.7,5.7,1.000E-002,99.964,0.300,0.700,AutoCalculate,NECB-ACTIVITY,No,3.8200E-008,0,5
 People Internal Gains Nominal, CORRIDOR_FLR_5 ZN SPACE FUNCTION CORRIDOR/TRANSITION AREA - HOSPITAL-SCH-B PEOPLE,NECB-B-OCCUPANCY,CORRIDOR_FLR_5 ZN,501.68,5.0,5.0,1.000E-002,99.964,0.300,0.700,AutoCalculate,NECB-ACTIVITY,No,3.8200E-008,0,5
 People Internal Gains Nominal, CORRIDOR_NW_FLR_3 ZN SPACE FUNCTION CORRIDOR/TRANSITION AREA - HOSPITAL-SCH-B PEOPLE,NECB-B-OCCUPANCY,CORRIDOR_NW_FLR_3 ZN,566.71,5.7,5.7,1.000E-002,99.964,0.300,0.700,AutoCalculate,NECB-ACTIVITY,No,3.8200E-008,0,5
 People Internal Gains Nominal, CORRIDOR_NW_FLR_4 ZN SPACE FUNCTION CORRIDOR/TRANSITION AREA - HOSPITAL-SCH-B PEOPLE,NECB-B-OCCUPANCY,CORRIDOR_NW_FLR_4 ZN,566.71,5.7,5.7,1.000E-002,99.964,0.300,0.700,AutoCalculate,NECB-ACTIVITY,No,3.8200E-008,0,5
 People Internal Gains Nominal, CORRIDOR_SE_FLR_3 ZN SPACE FUNCTION CORRIDOR/TRANSITION AREA - HOSPITAL-SCH-B PEOPLE,NECB-B-OCCUPANCY,CORRIDOR_SE_FLR_3 ZN,566.71,5.7,5.7,1.000E-002,99.964,0.300,0.700,AutoCalculate,NECB-ACTIVITY,No,3.8200E-008,0,5
 People Internal Gains Nominal, CORRIDOR_SE_FLR_4 ZN SPACE FUNCTION CORRIDOR/TRANSITION AREA - HOSPITAL-SCH-B PEOPLE,NECB-B-OCCUPANCY,CORRIDOR_SE_FLR_4 ZN,566.71,5.7,5.7,1.000E-002,99.964,0.300,0.700,AutoCalculate,NECB-ACTIVITY,No,3.8200E-008,0,5
 People Internal Gains Nominal, DINING_FLR_5 ZN SPACE FUNCTION DINING AREA - BAR LOUNGE/LEISURE DINING PEOPLE,NECB-B-OCCUPANCY,DINING_FLR_5 ZN,696.77,69.7,69.7,0.100,9.996,0.300,0.700,AutoCalculate,NECB-ACTIVITY,No,3.8200E-008,0,63
 People Internal Gains Nominal, KITCHEN_FLR_5 ZN SPACE FUNCTION FOOD PREPARATION AREA PEOPLE,NECB-B-OCCUPANCY,KITCHEN_FLR_5 ZN,929.03,46.5,46.5,5.002E-002,19.993,0.300,0.700,AutoCalculate,NECB-ACTIVITY,No,3.8200E-008,0,42
 People Internal Gains Nominal, RADIOLOGY_FLR_4 ZN SPACE FUNCTION HEALTH CARE FACILITY IMAGING ROOM PEOPLE,NECB-H-OCCUPANCY,RADIOLOGY_FLR_4 ZN,487.74,24.4,24.4,5.002E-002,19.993,0.300,0.700,AutoCalculate,NECB-ACTIVITY,No,3.8200E-008,22,22
 People Internal Gains Nominal, ER_NURSESTN_LOBBY_FLR_1 ZN SPACE FUNCTION HEALTH CARE FACILITY NURSES STATION PEOPLE,NECB-H-OCCUPANCY,ER_NURSESTN_LOBBY_FLR_1 ZN,1235.61,61.8,61.8,5.002E-002,19.993,0.300,0.700,AutoCalculate,NECB-ACTIVITY,No,3.8200E-008,56,56
 People Internal Gains Nominal, ICU_NURSESTN_LOBBY_FLR_2 ZN SPACE FUNCTION HEALTH CARE FACILITY NURSES STATION PEOPLE,NECB-H-OCCUPANCY,ICU_NURSESTN_LOBBY_FLR_2 ZN,668.77,33.5,33.5,5.002E-002,19.993,0.300,0.700,AutoCalculate,NECB-ACTIVITY,No,3.8200E-008,30,30
 People Internal Gains Nominal, NURSESTN_LOBBY_FLR_3 ZN SPACE FUNCTION HEALTH CARE FACILITY NURSES STATION PEOPLE,NECB-H-OCCUPANCY,NURSESTN_LOBBY_FLR_3 ZN,905.80,45.3,45.3,5.002E-002,19.993,0.300,0.700,AutoCalculate,NECB-ACTIVITY,No,3.8200E-008,41,41
 People Internal Gains Nominal, NURSESTN_LOBBY_FLR_4 ZN SPACE FUNCTION HEALTH CARE FACILITY NURSES STATION PEOPLE,NECB-H-OCCUPANCY,NURSESTN_LOBBY_FLR_4 ZN,905.80,45.3,45.3,5.002E-002,19.993,0.300,0.700,AutoCalculate,NECB-ACTIVITY,No,3.8200E-008,41,41
 People Internal Gains Nominal, NURSESTN_LOBBY_FLR_5 ZN SPACE FUNCTION HEALTH CARE FACILITY NURSES STATION PEOPLE,NECB-H-OCCUPANCY,NURSESTN_LOBBY_FLR_5 ZN,1040.51,52.0,52.0,5.002E-002,19.993,0.300,0.700,AutoCalculate,NECB-ACTIVITY,No,3.8200E-008,47,47
 People Internal Gains Nominal, OR_NURSESTN_LOBBY_FLR_2 ZN SPACE FUNCTION HEALTH CARE FACILITY NURSES STATION PEOPLE,NECB-H-OCCUPANCY,OR_NURSESTN_LOBBY_FLR_2 ZN,1012.64,50.7,50.7,5.002E-002,19.993,0.300,0.700,AutoCalculate,NECB-ACTIVITY,No,3.8200E-008,46,46
 People Internal Gains Nominal, ER_EXAM1_MULT4_FLR_1 ZN SPACE FUNCTION HEALTH CARE FACILITY OPERATING ROOM PEOPLE,NECB-H-OCCUPANCY,ER_EXAM1_MULT4_FLR_1 ZN,27.87,1.4,1.4,5.002E-002,19.993,0.300,0.700,AutoCalculate,NECB-ACTIVITY,No,3.8200E-008,1,1
 People Internal Gains Nominal, ER_EXAM3_MULT4_FLR_1 ZN SPACE FUNCTION HEALTH CARE FACILITY OPERATING ROOM PEOPLE,NECB-H-OCCUPANCY,ER_EXAM3_MULT4_FLR_1 ZN,27.87,1.4,1.4,5.002E-002,19.993,0.300,0.700,AutoCalculate,NECB-ACTIVITY,No,3.8200E-008,1,1
 People Internal Gains Nominal, ER_TRAUMA1_FLR_1 ZN SPACE FUNCTION HEALTH CARE FACILITY OPERATING ROOM PEOPLE,NECB-H-OCCUPANCY,ER_TRAUMA1_FLR_1 ZN,27.87,1.4,1.4,5.002E-002,19.993,0.300,0.700,AutoCalculate,NECB-ACTIVITY,No,3.8200E-008,1,1
 People Internal Gains Nominal, ER_TRAUMA2_FLR_1 ZN SPACE FUNCTION HEALTH CARE FACILITY OPERATING ROOM PEOPLE,NECB-H-OCCUPANCY,ER_TRAUMA2_FLR_1 ZN,27.87,1.4,1.4,5.002E-002,19.993,0.300,0.700,AutoCalculate,NECB-ACTIVITY,No,3.8200E-008,1,1
 People Internal Gains Nominal, ER_TRIAGE_MULT4_FLR_1 ZN SPACE FUNCTION HEALTH CARE FACILITY OPERATING ROOM PEOPLE,NECB-H-OCCUPANCY,ER_TRIAGE_MULT4_FLR_1 ZN,27.87,1.4,1.4,5.002E-002,19.993,0.300,0.700,AutoCalculate,NECB-ACTIVITY,No,3.8200E-008,1,1
 People Internal Gains Nominal, OR1_FLR_2 ZN SPACE FUNCTION HEALTH CARE FACILITY OPERATING ROOM PEOPLE,NECB-H-OCCUPANCY,OR1_FLR_2 ZN,55.74,2.8,2.8,5.002E-002,19.993,0.300,0.700,AutoCalculate,NECB-ACTIVITY,No,3.8200E-008,3,3
 People Internal Gains Nominal, OR2_MULT5_FLR_2 ZN SPACE FUNCTION HEALTH CARE FACILITY OPERATING ROOM PEOPLE,NECB-H-OCCUPANCY,OR2_MULT5_FLR_2 ZN,55.74,2.8,2.8,5.002E-002,19.993,0.300,0.700,AutoCalculate,NECB-ACTIVITY,No,3.8200E-008,3,3
 People Internal Gains Nominal, OR3_FLR_2 ZN SPACE FUNCTION HEALTH CARE FACILITY OPERATING ROOM PEOPLE,NECB-H-OCCUPANCY,OR3_FLR_2 ZN,55.74,2.8,2.8,5.002E-002,19.993,0.300,0.700,AutoCalculate,NECB-ACTIVITY,No,3.8200E-008,3,3
 People Internal Gains Nominal, OR4_FLR_2 ZN SPACE FUNCTION HEALTH CARE FACILITY OPERATING ROOM PEOPLE,NECB-H-OCCUPANCY,OR4_FLR_2 ZN,222.97,11.2,11.2,5.002E-002,19.993,0.300,0.700,AutoCalculate,NECB-ACTIVITY,No,3.8200E-008,10,10
 People Internal Gains Nominal, IC_PATROOM1_MULT5_FLR_2 ZN SPACE FUNCTION HEALTH CARE FACILITY PATIENT ROOM PEOPLE,NECB-H-OCCUPANCY,IC_PATROOM1_MULT5_FLR_2 ZN,20.90,1.0,1.0,5.002E-002,19.993,0.300,0.700,AutoCalculate,NECB-ACTIVITY,No,3.8200E-008,1,1
 People Internal Gains Nominal, IC_PATROOM2_FLR_2 ZN SPACE FUNCTION HEALTH CARE FACILITY PATIENT ROOM PEOPLE,NECB-H-OCCUPANCY,IC_PATROOM2_FLR_2 ZN,27.87,1.4,1.4,5.002E-002,19.993,0.300,0.700,AutoCalculate,NECB-ACTIVITY,No,3.8200E-008,1,1
 People Internal Gains Nominal, IC_PATROOM3_MULT6_FLR_2 ZN SPACE FUNCTION HEALTH CARE FACILITY PATIENT ROOM PEOPLE,NECB-H-OCCUPANCY,IC_PATROOM3_MULT6_FLR_2 ZN,20.90,1.0,1.0,5.002E-002,19.993,0.300,0.700,AutoCalculate,NECB-ACTIVITY,No,3.8200E-008,1,1
 People Internal Gains Nominal, PATROOM1_MULT10_FLR_3 ZN SPACE FUNCTION HEALTH CARE FACILITY PATIENT ROOM PEOPLE,NECB-H-OCCUPANCY,PATROOM1_MULT10_FLR_3 ZN,20.90,1.0,1.0,5.002E-002,19.993,0.300,0.700,AutoCalculate,NECB-ACTIVITY,No,3.8200E-008,1,1
 People Internal Gains Nominal, PATROOM1_MULT10_FLR_4 ZN SPACE FUNCTION HEALTH CARE FACILITY PATIENT ROOM PEOPLE,NECB-H-OCCUPANCY,PATROOM1_MULT10_FLR_4 ZN,20.90,1.0,1.0,5.002E-002,19.993,0.300,0.700,AutoCalculate,NECB-ACTIVITY,No,3.8200E-008,1,1
 People Internal Gains Nominal, PATROOM2_FLR_3 ZN SPACE FUNCTION HEALTH CARE FACILITY PATIENT ROOM PEOPLE,NECB-H-OCCUPANCY,PATROOM2_FLR_3 ZN,34.84,1.7,1.7,5.002E-002,19.993,0.300,0.700,AutoCalculate,NECB-ACTIVITY,No,3.8200E-008,2,2
 People Internal Gains Nominal, PATROOM2_FLR_4 ZN SPACE FUNCTION HEALTH CARE FACILITY PATIENT ROOM PEOPLE,NECB-H-OCCUPANCY,PATROOM2_FLR_4 ZN,34.84,1.7,1.7,5.002E-002,19.993,0.300,0.700,AutoCalculate,NECB-ACTIVITY,No,3.8200E-008,2,2
 People Internal Gains Nominal, PATROOM3_MULT10_FLR_3 ZN SPACE FUNCTION HEALTH CARE FACILITY PATIENT ROOM PEOPLE,NECB-H-OCCUPANCY,PATROOM3_MULT10_FLR_3 ZN,20.21,1.0,1.0,5.002E-002,19.993,0.300,0.700,AutoCalculate,NECB-ACTIVITY,No,3.8200E-008,1,1
 People Internal Gains Nominal, PATROOM3_MULT10_FLR_4 ZN SPACE FUNCTION HEALTH CARE FACILITY PATIENT ROOM PEOPLE,NECB-H-OCCUPANCY,PATROOM3_MULT10_FLR_4 ZN,20.21,1.0,1.0,5.002E-002,19.993,0.300,0.700,AutoCalculate,NECB-ACTIVITY,No,3.8200E-008,1,1
 People Internal Gains Nominal, PATROOM4_FLR_3 ZN SPACE FUNCTION HEALTH CARE FACILITY PATIENT ROOM PEOPLE,NECB-H-OCCUPANCY,PATROOM4_FLR_3 ZN,34.84,1.7,1.7,5.002E-002,19.993,0.300,0.700,AutoCalculate,NECB-ACTIVITY,No,3.8200E-008,2,2
 People Internal Gains Nominal, PATROOM4_FLR_4 ZN SPACE FUNCTION HEALTH CARE FACILITY PATIENT ROOM PEOPLE,NECB-H-OCCUPANCY,PATROOM4_FLR_4 ZN,34.84,1.7,1.7,5.002E-002,19.993,0.300,0.700,AutoCalculate,NECB-ACTIVITY,No,3.8200E-008,2,2
 People Internal Gains Nominal, PATROOM5_MULT10_FLR_3 ZN SPACE FUNCTION HEALTH CARE FACILITY PATIENT ROOM PEOPLE,NECB-H-OCCUPANCY,PATROOM5_MULT10_FLR_3 ZN,20.90,1.0,1.0,5.002E-002,19.993,0.300,0.700,AutoCalculate,NECB-ACTIVITY,No,3.8200E-008,1,1
 People Internal Gains Nominal, PATROOM5_MULT10_FLR_4 ZN SPACE FUNCTION HEALTH CARE FACILITY PATIENT ROOM PEOPLE,NECB-H-OCCUPANCY,PATROOM5_MULT10_FLR_4 ZN,20.90,1.0,1.0,5.002E-002,19.993,0.300,0.700,AutoCalculate,NECB-ACTIVITY,No,3.8200E-008,1,1
 People Internal Gains Nominal, PATROOM6_FLR_3 ZN SPACE FUNCTION HEALTH CARE FACILITY PATIENT ROOM PEOPLE,NECB-H-OCCUPANCY,PATROOM6_FLR_3 ZN,27.87,1.4,1.4,5.002E-002,19.993,0.300,0.700,AutoCalculate,NECB-ACTIVITY,No,3.8200E-008,1,1
 People Internal Gains Nominal, PATROOM6_FLR_4 ZN SPACE FUNCTION HEALTH CARE FACILITY PATIENT ROOM PEOPLE,NECB-H-OCCUPANCY,PATROOM6_FLR_4 ZN,27.87,1.4,1.4,5.002E-002,19.993,0.300,0.700,AutoCalculate,NECB-ACTIVITY,No,3.8200E-008,1,1
 People Internal Gains Nominal, PATROOM7_MULT10_FLR_3 ZN SPACE FUNCTION HEALTH CARE FACILITY PATIENT ROOM PEOPLE,NECB-H-OCCUPANCY,PATROOM7_MULT10_FLR_3 ZN,20.21,1.0,1.0,5.002E-002,19.993,0.300,0.700,AutoCalculate,NECB-ACTIVITY,No,3.8200E-008,1,1
 People Internal Gains Nominal, PATROOM7_MULT10_FLR_4 ZN SPACE FUNCTION HEALTH CARE FACILITY PATIENT ROOM PEOPLE,NECB-H-OCCUPANCY,PATROOM7_MULT10_FLR_4 ZN,20.21,1.0,1.0,5.002E-002,19.993,0.300,0.700,AutoCalculate,NECB-ACTIVITY,No,3.8200E-008,1,1
 People Internal Gains Nominal, PATROOM8_FLR_3 ZN SPACE FUNCTION HEALTH CARE FACILITY PATIENT ROOM PEOPLE,NECB-H-OCCUPANCY,PATROOM8_FLR_3 ZN,27.87,1.4,1.4,5.002E-002,19.993,0.300,0.700,AutoCalculate,NECB-ACTIVITY,No,3.8200E-008,1,1
 People Internal Gains Nominal, PATROOM8_FLR_4 ZN SPACE FUNCTION HEALTH CARE FACILITY PATIENT ROOM PEOPLE,NECB-H-OCCUPANCY,PATROOM8_FLR_4 ZN,27.87,1.4,1.4,5.002E-002,19.993,0.300,0.700,AutoCalculate,NECB-ACTIVITY,No,3.8200E-008,1,1
 People Internal Gains Nominal, PHYSTHERAPY_FLR_3 ZN SPACE FUNCTION HEALTH CARE FACILITY PHYSICAL THERAPY ROOM PEOPLE,NECB-C-OCCUPANCY,PHYSTHERAPY_FLR_3 ZN,487.74,24.4,24.4,5.002E-002,19.993,0.300,0.700,AutoCalculate,NECB-ACTIVITY,No,3.8200E-008,0,22
 People Internal Gains Nominal, ICU_FLR_2 ZN SPACE FUNCTION HEALTH CARE FACILITY RECOVERY ROOM PEOPLE,NECB-H-OCCUPANCY,ICU_FLR_2 ZN,617.96,30.9,30.9,5.002E-002,19.993,0.300,0.700,AutoCalculate,NECB-ACTIVITY,No,3.8200E-008,28,28
 People Internal Gains Nominal, BASEMENT ZN SPACE FUNCTION LABORATORY - OTHER PEOPLE,NECB-A-OCCUPANCY,BASEMENT ZN,3739.35,187.0,187.0,5.002E-002,19.993,0.300,0.700,AutoCalculate,NECB-ACTIVITY,No,3.8200E-008,0,168
 People Internal Gains Nominal, LAB_FLR_3 ZN SPACE FUNCTION LABORATORY - OTHER PEOPLE,NECB-A-OCCUPANCY,LAB_FLR_3 ZN,264.77,13.2,13.2,5.002E-002,19.993,0.300,0.700,AutoCalculate,NECB-ACTIVITY,No,3.8200E-008,0,12
 People Internal Gains Nominal, LAB_FLR_4 ZN SPACE FUNCTION LABORATORY - OTHER PEOPLE,NECB-A-OCCUPANCY,LAB_FLR_4 ZN,264.77,13.2,13.2,5.002E-002,19.993,0.300,0.700,AutoCalculate,NECB-ACTIVITY,No,3.8200E-008,0,12
 People Internal Gains Nominal, LOBBY_RECORDS_FLR_1 ZN SPACE FUNCTION OFFICE ENCLOSED > 25 M2 PEOPLE,NECB-A-OCCUPANCY,LOBBY_RECORDS_FLR_1 ZN,1474.81,73.8,73.8,5.002E-002,19.993,0.300,0.700,AutoCalculate,NECB-ACTIVITY,No,3.8200E-008,0,66
 People Internal Gains Nominal, OFFICE1_FLR_5 ZN SPACE FUNCTION OFFICE ENCLOSED > 25 M2 PEOPLE,NECB-A-OCCUPANCY,OFFICE1_FLR_5 ZN,69.70,3.5,3.5,5.002E-002,19.993,0.300,0.700,AutoCalculate,NECB-ACTIVITY,No,3.8200E-008,0,3
 People Internal Gains Nominal, OFFICE1_MULT4_FLR_1 ZN SPACE FUNCTION OFFICE ENCLOSED > 25 M2 PEOPLE,NECB-A-OCCUPANCY,OFFICE1_MULT4_FLR_1 ZN,13.94,0.7,0.7,5.002E-002,19.993,0.300,0.700,AutoCalculate,NECB-ACTIVITY,No,3.8200E-008,0,1
 People Internal Gains Nominal, OFFICE2_MULT5_FLR_5 ZN SPACE FUNCTION OFFICE ENCLOSED > 25 M2 PEOPLE,NECB-A-OCCUPANCY,OFFICE2_MULT5_FLR_5 ZN,69.66,3.5,3.5,5.002E-002,19.993,0.300,0.700,AutoCalculate,NECB-ACTIVITY,No,3.8200E-008,0,3
 People Internal Gains Nominal, OFFICE3_FLR_5 ZN SPACE FUNCTION OFFICE ENCLOSED > 25 M2 PEOPLE,NECB-A-OCCUPANCY,OFFICE3_FLR_5 ZN,69.68,3.5,3.5,5.002E-002,19.993,0.300,0.700,AutoCalculate,NECB-ACTIVITY,No,3.8200E-008,0,3
 People Internal Gains Nominal, OFFICE4_MULT6_FLR_5 ZN SPACE FUNCTION OFFICE ENCLOSED > 25 M2 PEOPLE,NECB-A-OCCUPANCY,OFFICE4_MULT6_FLR_5 ZN,13.94,0.7,0.7,5.002E-002,19.993,0.300,0.700,AutoCalculate,NECB-ACTIVITY,No,3.8200E-008,0,1
! <Lights Internal Gains Nominal>,Name,Schedule Name,Zone Name,Zone Floor Area {m2},# Zone Occupants,Lighting Level {W},Lights/Floor Area {W/m2},Lights per person {W/person},Fraction Return Air,Fraction Radiant,Fraction Short Wave,Fraction Convected,Fraction Replaceable,End-Use Category,Nominal Minimum Lighting Level {W},Nominal Maximum Lighting Level {W}
 Lights Internal Gains Nominal, CORRIDOR_FLR_1 ZN SPACE FUNCTION CORRIDOR/TRANSITION AREA - HOSPITAL-SCH-B LIGHTS,NECB-B-OCCUPANCY-NECB-B-LIGHTING-0.0-0.0-0.67-LIGHT RULESET,CORRIDOR_FLR_1 ZN,569.03,5.7,6090.846,10.704,1070.000,0.000,0.500,0.200,0.300,1.000,General,609.085,5481.761
 Lights Internal Gains Nominal, CORRIDOR_FLR_2 ZN SPACE FUNCTION CORRIDOR/TRANSITION AREA - HOSPITAL-SCH-B LIGHTS,NECB-B-OCCUPANCY-NECB-B-LIGHTING-0.0-0.0-0.67-LIGHT RULESET,CORRIDOR_FLR_2 ZN,569.03,5.7,6090.846,10.704,1070.000,0.000,0.500,0.200,0.300,1.000,General,609.085,5481.761
 Lights Internal Gains Nominal, CORRIDOR_FLR_5 ZN SPACE FUNCTION CORRIDOR/TRANSITION AREA - HOSPITAL-SCH-B LIGHTS,NECB-B-OCCUPANCY-NECB-B-LIGHTING-0.0-0.0-0.67-LIGHT RULESET,CORRIDOR_FLR_5 ZN,501.68,5.0,5369.888,10.704,1070.000,0.000,0.500,0.200,0.300,1.000,General,536.989,4832.900
 Lights Internal Gains Nominal, CORRIDOR_NW_FLR_3 ZN SPACE FUNCTION CORRIDOR/TRANSITION AREA - HOSPITAL-SCH-B LIGHTS,NECB-B-OCCUPANCY-NECB-B-LIGHTING-0.0-0.0-0.67-LIGHT RULESET,CORRIDOR_NW_FLR_3 ZN,566.71,5.7,6065.985,10.704,1070.000,0.000,0.500,0.200,0.300,1.000,General,606.599,5459.387
 Lights Internal Gains Nominal, CORRIDOR_NW_FLR_4 ZN SPACE FUNCTION CORRIDOR/TRANSITION AREA - HOSPITAL-SCH-B LIGHTS,NECB-B-OCCUPANCY-NECB-B-LIGHTING-0.0-0.0-0.67-LIGHT RULESET,CORRIDOR_NW_FLR_4 ZN,566.71,5.7,6065.985,10.704,1070.000,0.000,0.500,0.200,0.300,1.000,General,606.599,5459.387
 Lights Internal Gains Nominal, CORRIDOR_SE_FLR_3 ZN SPACE FUNCTION CORRIDOR/TRANSITION AREA - HOSPITAL-SCH-B LIGHTS,NECB-B-OCCUPANCY-NECB-B-LIGHTING-0.0-0.0-0.67-LIGHT RULESET,CORRIDOR_SE_FLR_3 ZN,566.71,5.7,6065.985,10.704,1070.000,0.000,0.500,0.200,0.300,1.000,General,606.599,5459.387
 Lights Internal Gains Nominal, CORRIDOR_SE_FLR_4 ZN SPACE FUNCTION CORRIDOR/TRANSITION AREA - HOSPITAL-SCH-B LIGHTS,NECB-B-OCCUPANCY-NECB-B-LIGHTING-0.0-0.0-0.67-LIGHT RULESET,CORRIDOR_SE_FLR_4 ZN,566.71,5.7,6065.985,10.704,1070.000,0.000,0.500,0.200,0.300,1.000,General,606.599,5459.387
 Lights Internal Gains Nominal, DINING_FLR_5 ZN SPACE FUNCTION DINING AREA - BAR LOUNGE/LEISURE DINING LIGHTS,NECB-B-OCCUPANCY-NECB-B-LIGHTING-0.0-0.0-0.67-LIGHT RULESET,DINING_FLR_5 ZN,696.77,69.7,8085.502,11.604,116.000,0.000,0.500,0.200,0.300,1.000,General,808.550,7276.952
 Lights Internal Gains Nominal, KITCHEN_FLR_5 ZN SPACE FUNCTION FOOD PREPARATION AREA LIGHTS,NECB-B-OCCUPANCY-NECB-B-LIGHTING-0.0-0.0-0.67-LIGHT RULESET,KITCHEN_FLR_5 ZN,929.03,46.5,12174.721,13.105,262.000,0.000,0.500,0.200,0.300,1.000,General,1217.472,10957.249
 Lights Internal Gains Nominal, RADIOLOGY_FLR_4 ZN SPACE FUNCTION HEALTH CARE FACILITY IMAGING ROOM LIGHTS,NECB-H-OCCUPANCY-NECB-H-LIGHTING-0.0-0.0-0.67-LIGHT RULESET,RADIOLOGY_FLR_4 ZN,487.74,24.4,7953.067,16.306,326.000,0.000,0.500,0.200,0.300,1.000,General,7157.760,7157.760
 Lights Internal Gains Nominal, ER_NURSESTN_LOBBY_FLR_1 ZN SPACE FUNCTION HEALTH CARE FACILITY NURSES STATION LIGHTS,NECB-H-LIGHTING,ER_NURSESTN_LOBBY_FLR_1 ZN,1235.61,61.8,9394.052,7.603,152.000,0.000,0.500,0.200,0.300,1.000,General,8454.647,8454.647
 Lights Internal Gains Nominal, ICU_NURSESTN_LOBBY_FLR_2 ZN SPACE FUNCTION HEALTH CARE FACILITY NURSES STATION LIGHTS,NECB-H-LIGHTING,ICU_NURSESTN_LOBBY_FLR_2 ZN,668.77,33.5,5084.482,7.603,152.000,0.000,0.500,0.200,0.300,1.000,General,4576.034,4576.034
 Lights Internal Gains Nominal, NURSESTN_LOBBY_FLR_3 ZN SPACE FUNCTION HEALTH CARE FACILITY NURSES STATION LIGHTS,NECB-H-LIGHTING,NURSESTN_LOBBY_FLR_3 ZN,905.80,45.3,6886.617,7.603,152.000,0.000,0.500,0.200,0.300,1.000,General,6197.955,6197.955
 Lights Internal Gains Nominal, NURSESTN_LOBBY_FLR_4 ZN SPACE FUNCTION HEALTH CARE FACILITY NURSES STATION LIGHTS,NECB-H-LIGHTING,NURSESTN_LOBBY_FLR_4 ZN,905.80,45.3,6886.617,7.603,152.000,0.000,0.500,0.200,0.300,1.000,General,6197.955,6197.955
 Lights Internal Gains Nominal, NURSESTN_LOBBY_FLR_5 ZN SPACE FUNCTION HEALTH CARE FACILITY NURSES STATION LIGHTS,NECB-H-LIGHTING,NURSESTN_LOBBY_FLR_5 ZN,1040.51,52.0,7910.781,7.603,152.000,0.000,0.500,0.200,0.300,1.000,General,7119.703,7119.703
 Lights Internal Gains Nominal, OR_NURSESTN_LOBBY_FLR_2 ZN SPACE FUNCTION HEALTH CARE FACILITY NURSES STATION LIGHTS,NECB-H-LIGHTING,OR_NURSESTN_LOBBY_FLR_2 ZN,1012.64,50.7,7698.885,7.603,152.000,0.000,0.500,0.200,0.300,1.000,General,6928.996,6928.996
 Lights Internal Gains Nominal, ER_EXAM1_MULT4_FLR_1 ZN SPACE FUNCTION HEALTH CARE FACILITY OPERATING ROOM LIGHTS,NECB-H-OCCUPANCY-NECB-H-LIGHTING-0.1-0.0-0.67-LIGHT RULESET,ER_EXAM1_MULT4_FLR_1 ZN,27.87,1.4,747.212,26.810,536.000,0.000,0.500,0.200,0.300,1.000,General,672.491,672.491
 Lights Internal Gains Nominal, ER_EXAM3_MULT4_FLR_1 ZN SPACE FUNCTION HEALTH CARE FACILITY OPERATING ROOM LIGHTS,NECB-H-OCCUPANCY-NECB-H-LIGHTING-0.1-0.0-0.67-LIGHT RULESET,ER_EXAM3_MULT4_FLR_1 ZN,27.87,1.4,747.212,26.810,536.000,0.000,0.500,0.200,0.300,1.000,General,672.491,672.491
 Lights Internal Gains Nominal, ER_TRAUMA1_FLR_1 ZN SPACE FUNCTION HEALTH CARE FACILITY OPERATING ROOM LIGHTS,NECB-H-OCCUPANCY-NECB-H-LIGHTING-0.1-0.0-0.67-LIGHT RULESET,ER_TRAUMA1_FLR_1 ZN,27.87,1.4,747.212,26.810,536.000,0.000,0.500,0.200,0.300,1.000,General,672.491,672.491
 Lights Internal Gains Nominal, ER_TRAUMA2_FLR_1 ZN SPACE FUNCTION HEALTH CARE FACILITY OPERATING ROOM LIGHTS,NECB-H-OCCUPANCY-NECB-H-LIGHTING-0.1-0.0-0.67-LIGHT RULESET,ER_TRAUMA2_FLR_1 ZN,27.87,1.4,747.212,26.810,536.000,0.000,0.500,0.200,0.300,1.000,General,672.491,672.491
 Lights Internal Gains Nominal, ER_TRIAGE_MULT4_FLR_1 ZN SPACE FUNCTION HEALTH CARE FACILITY OPERATING ROOM LIGHTS,NECB-H-OCCUPANCY-NECB-H-LIGHTING-0.1-0.0-0.67-LIGHT RULESET,ER_TRIAGE_MULT4_FLR_1 ZN,27.87,1.4,747.212,26.810,536.000,0.000,0.500,0.200,0.300,1.000,General,672.491,672.491
 Lights Internal Gains Nominal, OR1_FLR_2 ZN SPACE FUNCTION HEALTH CARE FACILITY OPERATING ROOM LIGHTS,NECB-H-OCCUPANCY-NECB-H-LIGHTING-0.1-0.0-0.67-LIGHT RULESET,OR1_FLR_2 ZN,55.74,2.8,1494.424,26.810,536.000,0.000,0.500,0.200,0.300,1.000,General,1344.981,1344.981
 Lights Internal Gains Nominal, OR2_MULT5_FLR_2 ZN SPACE FUNCTION HEALTH CARE FACILITY OPERATING ROOM LIGHTS,NECB-H-OCCUPANCY-NECB-H-LIGHTING-0.1-0.0-0.67-LIGHT RULESET,OR2_MULT5_FLR_2 ZN,55.74,2.8,1494.424,26.810,536.000,0.000,0.500,0.200,0.300,1.000,General,1344.981,1344.981
 Lights Internal Gains Nominal, OR3_FLR_2 ZN SPACE FUNCTION HEALTH CARE FACILITY OPERATING ROOM LIGHTS,NECB-H-OCCUPANCY-NECB-H-LIGHTING-0.1-0.0-0.67-LIGHT RULESET,OR3_FLR_2 ZN,55.74,2.8,1494.424,26.810,536.000,0.000,0.500,0.200,0.300,1.000,General,1344.981,1344.981
 Lights Internal Gains Nominal, OR4_FLR_2 ZN SPACE FUNCTION HEALTH CARE FACILITY OPERATING ROOM LIGHTS,NECB-H-OCCUPANCY-NECB-H-LIGHTING-0.1-0.0-0.67-LIGHT RULESET,OR4_FLR_2 ZN,222.97,11.2,5977.695,26.810,536.000,0.000,0.500,0.200,0.300,1.000,General,5379.926,5379.926
 Lights Internal Gains Nominal, IC_PATROOM1_MULT5_FLR_2 ZN SPACE FUNCTION HEALTH CARE FACILITY PATIENT ROOM LIGHTS,NECB-H-LIGHTING,IC_PATROOM1_MULT5_FLR_2 ZN,20.90,1.0,140.102,6.702,134.000,0.000,0.500,0.200,0.300,1.000,General,126.092,126.092
 Lights Internal Gains Nominal, IC_PATROOM2_FLR_2 ZN SPACE FUNCTION HEALTH CARE FACILITY PATIENT ROOM LIGHTS,NECB-H-LIGHTING,IC_PATROOM2_FLR_2 ZN,27.87,1.4,186.803,6.702,134.000,0.000,0.500,0.200,0.300,1.000,General,168.123,168.123
 Lights Internal Gains Nominal, IC_PATROOM3_MULT6_FLR_2 ZN SPACE FUNCTION HEALTH CARE FACILITY PATIENT ROOM LIGHTS,NECB-H-LIGHTING,IC_PATROOM3_MULT6_FLR_2 ZN,20.90,1.0,140.102,6.702,134.000,0.000,0.500,0.200,0.300,1.000,General,126.092,126.092
 Lights Internal Gains Nominal, PATROOM1_MULT10_FLR_3 ZN SPACE FUNCTION HEALTH CARE FACILITY PATIENT ROOM LIGHTS,NECB-H-LIGHTING,PATROOM1_MULT10_FLR_3 ZN,20.90,1.0,140.102,6.702,134.000,0.000,0.500,0.200,0.300,1.000,General,126.092,126.092
 Lights Internal Gains Nominal, PATROOM1_MULT10_FLR_4 ZN SPACE FUNCTION HEALTH CARE FACILITY PATIENT ROOM LIGHTS,NECB-H-LIGHTING,PATROOM1_MULT10_FLR_4 ZN,20.90,1.0,140.102,6.702,134.000,0.000,0.500,0.200,0.300,1.000,General,126.092,126.092
 Lights Internal Gains Nominal, PATROOM2_FLR_3 ZN SPACE FUNCTION HEALTH CARE FACILITY PATIENT ROOM LIGHTS,NECB-H-LIGHTING,PATROOM2_FLR_3 ZN,34.84,1.7,233.504,6.702,134.000,0.000,0.500,0.200,0.300,1.000,General,210.153,210.153
 Lights Internal Gains Nominal, PATROOM2_FLR_4 ZN SPACE FUNCTION HEALTH CARE FACILITY PATIENT ROOM LIGHTS,NECB-H-LIGHTING,PATROOM2_FLR_4 ZN,34.84,1.7,233.504,6.702,134.000,0.000,0.500,0.200,0.300,1.000,General,210.153,210.153
 Lights Internal Gains Nominal, PATROOM3_MULT10_FLR_3 ZN SPACE FUNCTION HEALTH CARE FACILITY PATIENT ROOM LIGHTS,NECB-H-LIGHTING,PATROOM3_MULT10_FLR_3 ZN,20.21,1.0,135.444,6.702,134.000,0.000,0.500,0.200,0.300,1.000,General,121.900,121.900
 Lights Internal Gains Nominal, PATROOM3_MULT10_FLR_4 ZN SPACE FUNCTION HEALTH CARE FACILITY PATIENT ROOM LIGHTS,NECB-H-LIGHTING,PATROOM3_MULT10_FLR_4 ZN,20.21,1.0,135.444,6.702,134.000,0.000,0.500,0.200,0.300,1.000,General,121.900,121.900
 Lights Internal Gains Nominal, PATROOM4_FLR_3 ZN SPACE FUNCTION HEALTH CARE FACILITY PATIENT ROOM LIGHTS,NECB-H-LIGHTING,PATROOM4_FLR_3 ZN,34.84,1.7,233.504,6.702,134.000,0.000,0.500,0.200,0.300,1.000,General,210.153,210.153
 Lights Internal Gains Nominal, PATROOM4_FLR_4 ZN SPACE FUNCTION HEALTH CARE FACILITY PATIENT ROOM LIGHTS,NECB-H-LIGHTING,PATROOM4_FLR_4 ZN,34.84,1.7,233.504,6.702,134.000,0.000,0.500,0.200,0.300,1.000,General,210.153,210.153
 Lights Internal Gains Nominal, PATROOM5_MULT10_FLR_3 ZN SPACE FUNCTION HEALTH CARE FACILITY PATIENT ROOM LIGHTS,NECB-H-LIGHTING,PATROOM5_MULT10_FLR_3 ZN,20.90,1.0,140.102,6.702,134.000,0.000,0.500,0.200,0.300,1.000,General,126.092,126.092
 Lights Internal Gains Nominal, PATROOM5_MULT10_FLR_4 ZN SPACE FUNCTION HEALTH CARE FACILITY PATIENT ROOM LIGHTS,NECB-H-LIGHTING,PATROOM5_MULT10_FLR_4 ZN,20.90,1.0,140.102,6.702,134.000,0.000,0.500,0.200,0.300,1.000,General,126.092,126.092
 Lights Internal Gains Nominal, PATROOM6_FLR_3 ZN SPACE FUNCTION HEALTH CARE FACILITY PATIENT ROOM LIGHTS,NECB-H-LIGHTING,PATROOM6_FLR_3 ZN,27.87,1.4,186.803,6.702,134.000,0.000,0.500,0.200,0.300,1.000,General,168.123,168.123
 Lights Internal Gains Nominal, PATROOM6_FLR_4 ZN SPACE FUNCTION HEALTH CARE FACILITY PATIENT ROOM LIGHTS,NECB-H-LIGHTING,PATROOM6_FLR_4 ZN,27.87,1.4,186.803,6.702,134.000,0.000,0.500,0.200,0.300,1.000,General,168.123,168.123
 Lights Internal Gains Nominal, PATROOM7_MULT10_FLR_3 ZN SPACE FUNCTION HEALTH CARE FACILITY PATIENT ROOM LIGHTS,NECB-H-LIGHTING,PATROOM7_MULT10_FLR_3 ZN,20.21,1.0,135.444,6.702,134.000,0.000,0.500,0.200,0.300,1.000,General,121.900,121.900
 Lights Internal Gains Nominal, PATROOM7_MULT10_FLR_4 ZN SPACE FUNCTION HEALTH CARE FACILITY PATIENT ROOM LIGHTS,NECB-H-LIGHTING,PATROOM7_MULT10_FLR_4 ZN,20.21,1.0,135.444,6.702,134.000,0.000,0.500,0.200,0.300,1.000,General,121.900,121.900
 Lights Internal Gains Nominal, PATROOM8_FLR_3 ZN SPACE FUNCTION HEALTH CARE FACILITY PATIENT ROOM LIGHTS,NECB-H-LIGHTING,PATROOM8_FLR_3 ZN,27.87,1.4,186.803,6.702,134.000,0.000,0.500,0.200,0.300,1.000,General,168.123,168.123
 Lights Internal Gains Nominal, PATROOM8_FLR_4 ZN SPACE FUNCTION HEALTH CARE FACILITY PATIENT ROOM LIGHTS,NECB-H-LIGHTING,PATROOM8_FLR_4 ZN,27.87,1.4,186.803,6.702,134.000,0.000,0.500,0.200,0.300,1.000,General,168.123,168.123
 Lights Internal Gains Nominal, PHYSTHERAPY_FLR_3 ZN SPACE FUNCTION HEALTH CARE FACILITY PHYSICAL THERAPY ROOM LIGHTS,NECB-C-OCCUPANCY-NECB-C-LIGHTING-0.2-0.0-0.67-LIGHT RULESET,PHYSTHERAPY_FLR_3 ZN,487.74,24.4,4830.390,9.904,198.000,0.000,0.500,0.200,0.300,1.000,General,209.156,4347.351
 Lights Internal Gains Nominal, ICU_FLR_2 ZN SPACE FUNCTION HEALTH CARE FACILITY RECOVERY ROOM LIGHTS,NECB-H-OCCUPANCY-NECB-H-LIGHTING-0.0-0.0-0.67-LIGHT RULESET,ICU_FLR_2 ZN,617.96,30.9,7665.544,12.405,248.000,0.000,0.500,0.200,0.300,1.000,General,6898.990,6898.990
 Lights Internal Gains Nominal, BASEMENT ZN SPACE FUNCTION LABORATORY - OTHER LIGHTS,NECB-A-OCCUPANCY-NECB-A-LIGHTING-0.0-0.0-0.67-LIGHT RULESET,BASEMENT ZN,3739.35,187.0,72943.773,19.507,390.000,0.000,0.500,0.200,0.300,1.000,General,3647.189,65649.396
 Lights Internal Gains Nominal, LAB_FLR_3 ZN SPACE FUNCTION LABORATORY - OTHER LIGHTS,NECB-A-OCCUPANCY-NECB-A-LIGHTING-0.0-0.0-0.67-LIGHT RULESET,LAB_FLR_3 ZN,264.77,13.2,5164.963,19.507,390.000,0.000,0.500,0.200,0.300,1.000,General,258.248,4648.467
 Lights Internal Gains Nominal, LAB_FLR_4 ZN SPACE FUNCTION LABORATORY - OTHER LIGHTS,NECB-A-OCCUPANCY-NECB-A-LIGHTING-0.0-0.0-0.67-LIGHT RULESET,LAB_FLR_4 ZN,264.77,13.2,5164.963,19.507,390.000,0.000,0.500,0.200,0.300,1.000,General,258.248,4648.467
 Lights Internal Gains Nominal, LOBBY_RECORDS_FLR_1 ZN SPACE FUNCTION OFFICE ENCLOSED > 25 M2 LIGHTS,NECB-A-OCCUPANCY-NECB-A-LIGHTING-0.3-0.1-0.67-LIGHT RULESET,LOBBY_RECORDS_FLR_1 ZN,1474.81,73.8,17704.159,12.004,240.000,0.000,0.500,0.200,0.300,1.000,General,618.760,15933.743
 Lights Internal Gains Nominal, OFFICE1_FLR_5 ZN SPACE FUNCTION OFFICE ENCLOSED > 25 M2 LIGHTS,NECB-A-OCCUPANCY-NECB-A-LIGHTING-0.3-0.1-0.67-LIGHT RULESET,OFFICE1_FLR_5 ZN,69.70,3.5,836.651,12.004,240.000,0.000,0.500,0.200,0.300,1.000,General,29.241,752.986
 Lights Internal Gains Nominal, OFFICE1_MULT4_FLR_1 ZN SPACE FUNCTION OFFICE ENCLOSED > 25 M2 LIGHTS,NECB-A-OCCUPANCY-NECB-A-LIGHTING-0.3-0.1-0.67-LIGHT RULESET,OFFICE1_MULT4_FLR_1 ZN,13.94,0.7,167.286,12.004,240.000,0.000,0.500,0.200,0.300,1.000,General,5.847,150.558
 Lights Internal Gains Nominal, OFFICE2_MULT5_FLR_5 ZN SPACE FUNCTION OFFICE ENCLOSED > 25 M2 LIGHTS,NECB-A-OCCUPANCY-NECB-A-LIGHTING-0.3-0.1-0.67-LIGHT RULESET,OFFICE2_MULT5_FLR_5 ZN,69.66,3.5,836.212,12.004,240.000,0.000,0.500,0.200,0.300,1.000,General,29.226,752.591
 Lights Internal Gains Nominal, OFFICE3_FLR_5 ZN SPACE FUNCTION OFFICE ENCLOSED > 25 M2 LIGHTS,NECB-A-OCCUPANCY-NECB-A-LIGHTING-0.3-0.1-0.67-LIGHT RULESET,OFFICE3_FLR_5 ZN,69.68,3.5,836.431,12.004,240.000,0.000,0.500,0.200,0.300,1.000,General,29.233,752.788
 Lights Internal Gains Nominal, OFFICE4_MULT6_FLR_5 ZN SPACE FUNCTION OFFICE ENCLOSED > 25 M2 LIGHTS,NECB-A-OCCUPANCY-NECB-A-LIGHTING-0.3-0.1-0.67-LIGHT RULESET,OFFICE4_MULT6_FLR_5 ZN,13.94,0.7,167.286,12.004,240.000,0.000,0.500,0.200,0.300,1.000,General,5.847,150.558
! <ElectricEquipment Internal Gains Nominal>,Name,Schedule Name,Zone Name,Zone Floor Area {m2},# Zone Occupants,Equipment Level {W},Equipment/Floor Area {W/m2},Equipment per person {W/person},Fraction Latent,Fraction Radiant,Fraction Lost,Fraction Convected,End-Use SubCategory,Nominal Minimum Equipment Level {W},Nominal Maximum Equipment Level {W}
 ElectricEquipment Internal Gains Nominal, DINING_FLR_5 ZN SPACE FUNCTION DINING AREA - BAR LOUNGE/LEISURE DINING ELEC EQUIP,NECB-B-ELECTRIC-EQUIPMENT,DINING_FLR_5 ZN,696.77,69.7,697.026,1.000,10.000,0.000,0.500,0.000,0.500,General,69.703,627.323
 ElectricEquipment Internal Gains Nominal, KITCHEN_FLR_5 ZN SPACE FUNCTION FOOD PREPARATION AREA ELEC EQUIP,NECB-B-ELECTRIC-EQUIPMENT,KITCHEN_FLR_5 ZN,929.03,46.5,9293.680,10.004,200.000,0.000,0.500,0.000,0.500,General,929.368,8364.312
 ElectricEquipment Internal Gains Nominal, RADIOLOGY_FLR_4 ZN SPACE FUNCTION HEALTH CARE FACILITY IMAGING ROOM ELEC EQUIP,NECB-H-ELECTRIC-EQUIPMENT,RADIOLOGY_FLR_4 ZN,487.74,24.4,4879.182,10.004,200.000,0.000,0.500,0.000,0.500,General,4391.264,4391.264
 ElectricEquipment Internal Gains Nominal, ER_NURSESTN_LOBBY_FLR_1 ZN SPACE FUNCTION HEALTH CARE FACILITY NURSES STATION ELEC EQUIP,NECB-H-ELECTRIC-EQUIPMENT,ER_NURSESTN_LOBBY_FLR_1 ZN,1235.61,61.8,3090.149,2.501,50.000,0.000,0.500,0.000,0.500,General,2781.134,2781.134
 ElectricEquipment Internal Gains Nominal, ICU_NURSESTN_LOBBY_FLR_2 ZN SPACE FUNCTION HEALTH CARE FACILITY NURSES STATION ELEC EQUIP,NECB-H-ELECTRIC-EQUIPMENT,ICU_NURSESTN_LOBBY_FLR_2 ZN,668.77,33.5,1672.527,2.501,50.000,0.000,0.500,0.000,0.500,General,1505.274,1505.274
 ElectricEquipment Internal Gains Nominal, NURSESTN_LOBBY_FLR_3 ZN SPACE FUNCTION HEALTH CARE FACILITY NURSES STATION ELEC EQUIP,NECB-H-ELECTRIC-EQUIPMENT,NURSESTN_LOBBY_FLR_3 ZN,905.80,45.3,2265.335,2.501,50.000,0.000,0.500,0.000,0.500,General,2038.801,2038.801
 ElectricEquipment Internal Gains Nominal, NURSESTN_LOBBY_FLR_4 ZN SPACE FUNCTION HEALTH CARE FACILITY NURSES STATION ELEC EQUIP,NECB-H-ELECTRIC-EQUIPMENT,NURSESTN_LOBBY_FLR_4 ZN,905.80,45.3,2265.335,2.501,50.000,0.000,0.500,0.000,0.500,General,2038.801,2038.801
 ElectricEquipment Internal Gains Nominal, NURSESTN_LOBBY_FLR_5 ZN SPACE FUNCTION HEALTH CARE FACILITY NURSES STATION ELEC EQUIP,NECB-H-ELECTRIC-EQUIPMENT,NURSESTN_LOBBY_FLR_5 ZN,1040.51,52.0,2602.230,2.501,50.000,0.000,0.500,0.000,0.500,General,2342.007,2342.007
 ElectricEquipment Internal Gains Nominal, OR_NURSESTN_LOBBY_FLR_2 ZN SPACE FUNCTION HEALTH CARE FACILITY NURSES STATION ELEC EQUIP,NECB-H-ELECTRIC-EQUIPMENT,OR_NURSESTN_LOBBY_FLR_2 ZN,1012.64,50.7,2532.528,2.501,50.000,0.000,0.500,0.000,0.500,General,2279.275,2279.275
 ElectricEquipment Internal Gains Nominal, ER_EXAM1_MULT4_FLR_1 ZN SPACE FUNCTION HEALTH CARE FACILITY OPERATING ROOM ELEC EQUIP,NECB-H-ELECTRIC-EQUIPMENT,ER_EXAM1_MULT4_FLR_1 ZN,27.87,1.4,278.810,10.004,200.000,0.000,0.500,0.000,0.500,General,250.929,250.929
 ElectricEquipment Internal Gains Nominal, ER_EXAM3_MULT4_FLR_1 ZN SPACE FUNCTION HEALTH CARE FACILITY OPERATING ROOM ELEC EQUIP,NECB-H-ELECTRIC-EQUIPMENT,ER_EXAM3_MULT4_FLR_1 ZN,27.87,1.4,278.810,10.004,200.000,0.000,0.500,0.000,0.500,General,250.929,250.929
 ElectricEquipment Internal Gains Nominal, ER_TRAUMA1_FLR_1 ZN SPACE FUNCTION HEALTH CARE FACILITY OPERATING ROOM ELEC EQUIP,NECB-H-ELECTRIC-EQUIPMENT,ER_TRAUMA1_FLR_1 ZN,27.87,1.4,278.810,10.004,200.000,0.000,0.500,0.000,0.500,General,250.929,250.929
 ElectricEquipment Internal Gains Nominal, ER_TRAUMA2_FLR_1 ZN SPACE FUNCTION HEALTH CARE FACILITY OPERATING ROOM ELEC EQUIP,NECB-H-ELECTRIC-EQUIPMENT,ER_TRAUMA2_FLR_1 ZN,27.87,1.4,278.810,10.004,200.000,0.000,0.500,0.000,0.500,General,250.929,250.929
 ElectricEquipment Internal Gains Nominal, ER_TRIAGE_MULT4_FLR_1 ZN SPACE FUNCTION HEALTH CARE FACILITY OPERATING ROOM ELEC EQUIP,NECB-H-ELECTRIC-EQUIPMENT,ER_TRIAGE_MULT4_FLR_1 ZN,27.87,1.4,278.810,10.004,200.000,0.000,0.500,0.000,0.500,General,250.929,250.929
 ElectricEquipment Internal Gains Nominal, OR1_FLR_2 ZN SPACE FUNCTION HEALTH CARE FACILITY OPERATING ROOM ELEC EQUIP,NECB-H-ELECTRIC-EQUIPMENT,OR1_FLR_2 ZN,55.74,2.8,557.621,10.004,200.000,0.000,0.500,0.000,0.500,General,501.859,501.859
 ElectricEquipment Internal Gains Nominal, OR2_MULT5_FLR_2 ZN SPACE FUNCTION HEALTH CARE FACILITY OPERATING ROOM ELEC EQUIP,NECB-H-ELECTRIC-EQUIPMENT,OR2_MULT5_FLR_2 ZN,55.74,2.8,557.621,10.004,200.000,0.000,0.500,0.000,0.500,General,501.859,501.859
 ElectricEquipment Internal Gains Nominal, OR3_FLR_2 ZN SPACE FUNCTION HEALTH CARE FACILITY OPERATING ROOM ELEC EQUIP,NECB-H-ELECTRIC-EQUIPMENT,OR3_FLR_2 ZN,55.74,2.8,557.621,10.004,200.000,0.000,0.500,0.000,0.500,General,501.859,501.859
 ElectricEquipment Internal Gains Nominal, OR4_FLR_2 ZN SPACE FUNCTION HEALTH CARE FACILITY OPERATING ROOM ELEC EQUIP,NECB-H-ELECTRIC-EQUIPMENT,OR4_FLR_2 ZN,222.97,11.2,2230.483,10.004,200.000,0.000,0.500,0.000,0.500,General,2007.435,2007.435
 ElectricEquipment Internal Gains Nominal, IC_PATROOM1_MULT5_FLR_2 ZN SPACE FUNCTION HEALTH CARE FACILITY PATIENT ROOM ELEC EQUIP,NECB-H-ELECTRIC-EQUIPMENT,IC_PATROOM1_MULT5_FLR_2 ZN,20.90,1.0,209.108,10.004,200.000,0.000,0.500,0.000,0.500,General,188.197,188.197
 ElectricEquipment Internal Gains Nominal, IC_PATROOM2_FLR_2 ZN SPACE FUNCTION HEALTH CARE FACILITY PATIENT ROOM ELEC EQUIP,NECB-H-ELECTRIC-EQUIPMENT,IC_PATROOM2_FLR_2 ZN,27.87,1.4,278.810,10.004,200.000,0.000,0.500,0.000,0.500,General,250.929,250.929
 ElectricEquipment Internal Gains Nominal, IC_PATROOM3_MULT6_FLR_2 ZN SPACE FUNCTION HEALTH CARE FACILITY PATIENT ROOM ELEC EQUIP,NECB-H-ELECTRIC-EQUIPMENT,IC_PATROOM3_MULT6_FLR_2 ZN,20.90,1.0,209.108,10.004,200.000,0.000,0.500,0.000,0.500,General,188.197,188.197
 ElectricEquipment Internal Gains Nominal, PATROOM1_MULT10_FLR_3 ZN SPACE FUNCTION HEALTH CARE FACILITY PATIENT ROOM ELEC EQUIP,NECB-H-ELECTRIC-EQUIPMENT,PATROOM1_MULT10_FLR_3 ZN,20.90,1.0,209.108,10.004,200.000,0.000,0.500,0.000,0.500,General,188.197,188.197
 ElectricEquipment Internal Gains Nominal, PATROOM1_MULT10_FLR_4 ZN SPACE FUNCTION HEALTH CARE FACILITY PATIENT ROOM ELEC EQUIP,NECB-H-ELECTRIC-EQUIPMENT,PATROOM1_MULT10_FLR_4 ZN,20.90,1.0,209.108,10.004,200.000,0.000,0.500,0.000,0.500,General,188.197,188.197
 ElectricEquipment Internal Gains Nominal, PATROOM2_FLR_3 ZN SPACE FUNCTION HEALTH CARE FACILITY PATIENT ROOM ELEC EQUIP,NECB-H-ELECTRIC-EQUIPMENT,PATROOM2_FLR_3 ZN,34.84,1.7,348.513,10.004,200.000,0.000,0.500,0.000,0.500,General,313.662,313.662
 ElectricEquipment Internal Gains Nominal, PATROOM2_FLR_4 ZN SPACE FUNCTION HEALTH CARE FACILITY PATIENT ROOM ELEC EQUIP,NECB-H-ELECTRIC-EQUIPMENT,PATROOM2_FLR_4 ZN,34.84,1.7,348.513,10.004,200.000,0.000,0.500,0.000,0.500,General,313.662,313.662
 ElectricEquipment Internal Gains Nominal, PATROOM3_MULT10_FLR_3 ZN SPACE FUNCTION HEALTH CARE FACILITY PATIENT ROOM ELEC EQUIP,NECB-H-ELECTRIC-EQUIPMENT,PATROOM3_MULT10_FLR_3 ZN,20.21,1.0,202.156,10.004,200.000,0.000,0.500,0.000,0.500,General,181.940,181.940
 ElectricEquipment Internal Gains Nominal, PATROOM3_MULT10_FLR_4 ZN SPACE FUNCTION HEALTH CARE FACILITY PATIENT ROOM ELEC EQUIP,NECB-H-ELECTRIC-EQUIPMENT,PATROOM3_MULT10_FLR_4 ZN,20.21,1.0,202.156,10.004,200.000,0.000,0.500,0.000,0.500,General,181.940,181.940
 ElectricEquipment Internal Gains Nominal, PATROOM4_FLR_3 ZN SPACE FUNCTION HEALTH CARE FACILITY PATIENT ROOM ELEC EQUIP,NECB-H-ELECTRIC-EQUIPMENT,PATROOM4_FLR_3 ZN,34.84,1.7,348.513,10.004,200.000,0.000,0.500,0.000,0.500,General,313.662,313.662
 ElectricEquipment Internal Gains Nominal, PATROOM4_FLR_4 ZN SPACE FUNCTION HEALTH CARE FACILITY PATIENT ROOM ELEC EQUIP,NECB-H-ELECTRIC-EQUIPMENT,PATROOM4_FLR_4 ZN,34.84,1.7,348.513,10.004,200.000,0.000,0.500,0.000,0.500,General,313.662,313.662
 ElectricEquipment Internal Gains Nominal, PATROOM5_MULT10_FLR_3 ZN SPACE FUNCTION HEALTH CARE FACILITY PATIENT ROOM ELEC EQUIP,NECB-H-ELECTRIC-EQUIPMENT,PATROOM5_MULT10_FLR_3 ZN,20.90,1.0,209.108,10.004,200.000,0.000,0.500,0.000,0.500,General,188.197,188.197
 ElectricEquipment Internal Gains Nominal, PATROOM5_MULT10_FLR_4 ZN SPACE FUNCTION HEALTH CARE FACILITY PATIENT ROOM ELEC EQUIP,NECB-H-ELECTRIC-EQUIPMENT,PATROOM5_MULT10_FLR_4 ZN,20.90,1.0,209.108,10.004,200.000,0.000,0.500,0.000,0.500,General,188.197,188.197
 ElectricEquipment Internal Gains Nominal, PATROOM6_FLR_3 ZN SPACE FUNCTION HEALTH CARE FACILITY PATIENT ROOM ELEC EQUIP,NECB-H-ELECTRIC-EQUIPMENT,PATROOM6_FLR_3 ZN,27.87,1.4,278.810,10.004,200.000,0.000,0.500,0.000,0.500,General,250.929,250.929
 ElectricEquipment Internal Gains Nominal, PATROOM6_FLR_4 ZN SPACE FUNCTION HEALTH CARE FACILITY PATIENT ROOM ELEC EQUIP,NECB-H-ELECTRIC-EQUIPMENT,PATROOM6_FLR_4 ZN,27.87,1.4,278.810,10.004,200.000,0.000,0.500,0.000,0.500,General,250.929,250.929
 ElectricEquipment Internal Gains Nominal, PATROOM7_MULT10_FLR_3 ZN SPACE FUNCTION HEALTH CARE FACILITY PATIENT ROOM ELEC EQUIP,NECB-H-ELECTRIC-EQUIPMENT,PATROOM7_MULT10_FLR_3 ZN,20.21,1.0,202.156,10.004,200.000,0.000,0.500,0.000,0.500,General,181.940,181.940
 ElectricEquipment Internal Gains Nominal, PATROOM7_MULT10_FLR_4 ZN SPACE FUNCTION HEALTH CARE FACILITY PATIENT ROOM ELEC EQUIP,NECB-H-ELECTRIC-EQUIPMENT,PATROOM7_MULT10_FLR_4 ZN,20.21,1.0,202.156,10.004,200.000,0.000,0.500,0.000,0.500,General,181.940,181.940
 ElectricEquipment Internal Gains Nominal, PATROOM8_FLR_3 ZN SPACE FUNCTION HEALTH CARE FACILITY PATIENT ROOM ELEC EQUIP,NECB-H-ELECTRIC-EQUIPMENT,PATROOM8_FLR_3 ZN,27.87,1.4,278.810,10.004,200.000,0.000,0.500,0.000,0.500,General,250.929,250.929
 ElectricEquipment Internal Gains Nominal, PATROOM8_FLR_4 ZN SPACE FUNCTION HEALTH CARE FACILITY PATIENT ROOM ELEC EQUIP,NECB-H-ELECTRIC-EQUIPMENT,PATROOM8_FLR_4 ZN,27.87,1.4,278.810,10.004,200.000,0.000,0.500,0.000,0.500,General,250.929,250.929
 ElectricEquipment Internal Gains Nominal, PHYSTHERAPY_FLR_3 ZN SPACE FUNCTION HEALTH CARE FACILITY PHYSICAL THERAPY ROOM ELEC EQUIP,NECB-C-ELECTRIC-EQUIPMENT,PHYSTHERAPY_FLR_3 ZN,487.74,24.4,4879.182,10.004,200.000,0.000,0.500,0.000,0.500,General,243.959,4391.264
 ElectricEquipment Internal Gains Nominal, ICU_FLR_2 ZN SPACE FUNCTION HEALTH CARE FACILITY RECOVERY ROOM ELEC EQUIP,NECB-H-ELECTRIC-EQUIPMENT,ICU_FLR_2 ZN,617.96,30.9,6181.891,10.004,200.000,0.000,0.500,0.000,0.500,General,5563.702,5563.702
 ElectricEquipment Internal Gains Nominal, BASEMENT ZN SPACE FUNCTION LABORATORY - OTHER ELEC EQUIP,NECB-A-ELECTRIC-EQUIPMENT,BASEMENT ZN,3739.35,187.0,37407.063,10.004,200.000,0.000,0.500,0.000,0.500,General,7481.413,33666.357
 ElectricEquipment Internal Gains Nominal, LAB_FLR_3 ZN SPACE FUNCTION LABORATORY - OTHER ELEC EQUIP,NECB-A-ELECTRIC-EQUIPMENT,LAB_FLR_3 ZN,264.77,13.2,2648.699,10.004,200.000,0.000,0.500,0.000,0.500,General,529.740,2383.829
 ElectricEquipment Internal Gains Nominal, LAB_FLR_4 ZN SPACE FUNCTION LABORATORY - OTHER ELEC EQUIP,NECB-A-ELECTRIC-EQUIPMENT,LAB_FLR_4 ZN,264.77,13.2,2648.699,10.004,200.000,0.000,0.500,0.000,0.500,General,529.740,2383.829
 ElectricEquipment Internal Gains Nominal, LOBBY_RECORDS_FLR_1 ZN SPACE FUNCTION OFFICE ENCLOSED > 25 M2 ELEC EQUIP,NECB-A-ELECTRIC-EQUIPMENT,LOBBY_RECORDS_FLR_1 ZN,1474.81,73.8,11065.099,7.503,150.000,0.000,0.500,0.000,0.500,General,2213.020,9958.589
 ElectricEquipment Internal Gains Nominal, OFFICE1_FLR_5 ZN SPACE FUNCTION OFFICE ENCLOSED > 25 M2 ELEC EQUIP,NECB-A-ELECTRIC-EQUIPMENT,OFFICE1_FLR_5 ZN,69.70,3.5,522.907,7.503,150.000,0.000,0.500,0.000,0.500,General,104.581,470.616
 ElectricEquipment Internal Gains Nominal, OFFICE1_MULT4_FLR_1 ZN SPACE FUNCTION OFFICE ENCLOSED > 25 M2 ELEC EQUIP,NECB-A-ELECTRIC-EQUIPMENT,OFFICE1_MULT4_FLR_1 ZN,13.94,0.7,104.554,7.503,150.000,0.000,0.500,0.000,0.500,General,20.911,94.099
 ElectricEquipment Internal Gains Nominal, OFFICE2_MULT5_FLR_5 ZN SPACE FUNCTION OFFICE ENCLOSED > 25 M2 ELEC EQUIP,NECB-A-ELECTRIC-EQUIPMENT,OFFICE2_MULT5_FLR_5 ZN,69.66,3.5,522.632,7.503,150.000,0.000,0.500,0.000,0.500,General,104.526,470.369
 ElectricEquipment Internal Gains Nominal, OFFICE3_FLR_5 ZN SPACE FUNCTION OFFICE ENCLOSED > 25 M2 ELEC EQUIP,NECB-A-ELECTRIC-EQUIPMENT,OFFICE3_FLR_5 ZN,69.68,3.5,522.770,7.503,150.000,0.000,0.500,0.000,0.500,General,104.554,470.493
 ElectricEquipment Internal Gains Nominal, OFFICE4_MULT6_FLR_5 ZN SPACE FUNCTION OFFICE ENCLOSED > 25 M2 ELEC EQUIP,NECB-A-ELECTRIC-EQUIPMENT,OFFICE4_MULT6_FLR_5 ZN,13.94,0.7,104.554,7.503,150.000,0.000,0.500,0.000,0.500,General,20.911,94.099
! <Shadowing/Sun Position Calculations Annual Simulations>, Calculation Method, Value {days}, Allowable Number Figures in Shadow Overlap {}, Polygon Clipping Algorithm, Sky Diffuse Modeling Algorithm, External Shading Calculation Method, Output External Shading Calculation Results, Disable Self-Shading Within Shading Zone Groups, Disable Self-Shading From Shading Zone Groups to Other Zones
Shadowing/Sun Position Calculations Annual Simulations,AverageOverDaysInFrequency,20,15000,SutherlandHodgman,SimpleSkyDiffuseModeling,InternalCalculation,No,No,No
! <ZoneInfiltration Airflow Stats Nominal>,Name,Schedule Name,Zone Name, Zone Floor Area {m2}, # Zone Occupants,Design Volume Flow Rate {m3/s},Volume Flow Rate/Floor Area {m3/s/m2},Volume Flow Rate/Exterior Surface Area {m3/s/m2},ACH - Air Changes per Hour,Equation A - Constant Term Coefficient {},Equation B - Temperature Term Coefficient {1/C},Equation C - Velocity Term Coefficient {s/m}, Equation D - Velocity Squared Term Coefficient {s2/m2}
 ZoneInfiltration Airflow Stats Nominal, CORRIDOR_FLR_1 INFILTRATION,ALWAYS ON DISCRETE,CORRIDOR_FLR_1 ZN,569.03,5.7,2.276E-002,4.000E-005,2.500E-004,3.375E-002,0.000,0.000,0.224,0.000
 ZoneInfiltration Airflow Stats Nominal, CORRIDOR_FLR_2 INFILTRATION,ALWAYS ON DISCRETE,CORRIDOR_FLR_2 ZN,569.03,5.7,2.276E-002,4.000E-005,2.500E-004,3.375E-002,0.000,0.000,0.224,0.000
 ZoneInfiltration Airflow Stats Nominal, CORRIDOR_FLR_5 INFILTRATION,ALWAYS ON DISCRETE,CORRIDOR_FLR_5 ZN,501.68,5.0,0.145,2.889E-004,2.500E-004,0.244,0.000,0.000,0.224,0.000
 ZoneInfiltration Airflow Stats Nominal, CORRIDOR_NW_FLR_3 INFILTRATION,ALWAYS ON DISCRETE,CORRIDOR_NW_FLR_3 ZN,566.71,5.7,1.138E-002,2.008E-005,2.500E-004,1.694E-002,0.000,0.000,0.224,0.000
 ZoneInfiltration Airflow Stats Nominal, CORRIDOR_NW_FLR_4 INFILTRATION,ALWAYS ON DISCRETE,CORRIDOR_NW_FLR_4 ZN,566.71,5.7,1.138E-002,2.008E-005,2.500E-004,1.694E-002,0.000,0.000,0.224,0.000
 ZoneInfiltration Airflow Stats Nominal, CORRIDOR_SE_FLR_3 INFILTRATION,ALWAYS ON DISCRETE,CORRIDOR_SE_FLR_3 ZN,566.71,5.7,1.138E-002,2.008E-005,2.500E-004,1.694E-002,0.000,0.000,0.224,0.000
 ZoneInfiltration Airflow Stats Nominal, CORRIDOR_SE_FLR_4 INFILTRATION,ALWAYS ON DISCRETE,CORRIDOR_SE_FLR_4 ZN,566.71,5.7,1.138E-002,2.008E-005,2.500E-004,1.694E-002,0.000,0.000,0.224,0.000
 ZoneInfiltration Airflow Stats Nominal, DINING_FLR_5 INFILTRATION,ALWAYS ON DISCRETE,DINING_FLR_5 ZN,696.77,69.7,0.231,3.317E-004,2.500E-004,0.280,0.000,0.000,0.224,0.000
 ZoneInfiltration Airflow Stats Nominal, ER_EXAM1_MULT4_FLR_1 INFILTRATION,ALWAYS ON DISCRETE,ER_EXAM1_MULT4_FLR_1 ZN,27.87,1.4,6.503E-003,2.333E-004,2.500E-004,0.197,0.000,0.000,0.224,0.000
 ZoneInfiltration Airflow Stats Nominal, ER_EXAM3_MULT4_FLR_1 INFILTRATION,ALWAYS ON DISCRETE,ER_EXAM3_MULT4_FLR_1 ZN,27.87,1.4,4.877E-003,1.750E-004,2.500E-004,0.148,0.000,0.000,0.224,0.000
 ZoneInfiltration Airflow Stats Nominal, ER_NURSESTN_LOBBY_FLR_1 INFILTRATION,ALWAYS ON DISCRETE,ER_NURSESTN_LOBBY_FLR_1 ZN,1235.61,61.8,2.764E-002,2.237E-005,2.500E-004,1.887E-002,0.000,0.000,0.224,0.000
 ZoneInfiltration Airflow Stats Nominal, ER_TRAUMA1_FLR_1 INFILTRATION,ALWAYS ON DISCRETE,ER_TRAUMA1_FLR_1 ZN,27.87,1.4,1.138E-002,4.083E-004,2.500E-004,0.344,0.000,0.000,0.224,0.000
 ZoneInfiltration Airflow Stats Nominal, ER_TRAUMA2_FLR_1 INFILTRATION,ALWAYS ON DISCRETE,ER_TRAUMA2_FLR_1 ZN,27.87,1.4,1.138E-002,4.083E-004,2.500E-004,0.344,0.000,0.000,0.224,0.000
 ZoneInfiltration Airflow Stats Nominal, ER_TRIAGE_MULT4_FLR_1 INFILTRATION,ALWAYS ON DISCRETE,ER_TRIAGE_MULT4_FLR_1 ZN,27.87,1.4,6.503E-003,2.333E-004,2.500E-004,0.197,0.000,0.000,0.224,0.000
 ZoneInfiltration Airflow Stats Nominal, ICU_FLR_2 INFILTRATION,ALWAYS ON DISCRETE,ICU_FLR_2 ZN,617.96,30.9,5.366E-002,8.683E-005,2.500E-004,7.325E-002,0.000,0.000,0.224,0.000
 ZoneInfiltration Airflow Stats Nominal, IC_PATROOM1_MULT5_FLR_2 INFILTRATION,ALWAYS ON DISCRETE,IC_PATROOM1_MULT5_FLR_2 ZN,20.90,1.0,4.877E-003,2.333E-004,2.500E-004,0.197,0.000,0.000,0.224,0.000
 ZoneInfiltration Airflow Stats Nominal, IC_PATROOM2_FLR_2 INFILTRATION,ALWAYS ON DISCRETE,IC_PATROOM2_FLR_2 ZN,27.87,1.4,1.138E-002,4.083E-004,2.500E-004,0.344,0.000,0.000,0.224,0.000
 ZoneInfiltration Airflow Stats Nominal, IC_PATROOM3_MULT6_FLR_2 INFILTRATION,ALWAYS ON DISCRETE,IC_PATROOM3_MULT6_FLR_2 ZN,20.90,1.0,4.877E-003,2.333E-004,2.500E-004,0.197,0.000,0.000,0.224,0.000
 ZoneInfiltration Airflow Stats Nominal, KITCHEN_FLR_5 INFILTRATION,ALWAYS ON DISCRETE,KITCHEN_FLR_5 ZN,929.03,46.5,0.297,3.200E-004,2.500E-004,0.270,0.000,0.000,0.224,0.000
 ZoneInfiltration Airflow Stats Nominal, LOBBY_RECORDS_FLR_1 INFILTRATION,ALWAYS ON DISCRETE,LOBBY_RECORDS_FLR_1 ZN,1474.81,73.8,0.102,6.945E-005,2.500E-004,5.859E-002,0.000,0.000,0.224,0.000
 ZoneInfiltration Airflow Stats Nominal, NURSESTN_LOBBY_FLR_5 INFILTRATION,ALWAYS ON DISCRETE,NURSESTN_LOBBY_FLR_5 ZN,1040.51,52.0,0.286,2.750E-004,2.500E-004,0.232,0.000,0.000,0.224,0.000
 ZoneInfiltration Airflow Stats Nominal, OFFICE1_FLR_5 INFILTRATION,ALWAYS ON DISCRETE,OFFICE1_FLR_5 ZN,69.70,3.5,3.531E-002,5.066E-004,2.500E-004,0.427,0.000,0.000,0.224,0.000
 ZoneInfiltration Airflow Stats Nominal, OFFICE1_MULT4_FLR_1 INFILTRATION,ALWAYS ON DISCRETE,OFFICE1_MULT4_FLR_1 ZN,13.94,0.7,3.252E-003,2.333E-004,2.500E-004,0.197,0.000,0.000,0.224,0.000
 ZoneInfiltration Airflow Stats Nominal, OFFICE2_MULT5_FLR_5 INFILTRATION,ALWAYS ON DISCRETE,OFFICE2_MULT5_FLR_5 ZN,69.66,3.5,2.554E-002,3.667E-004,2.500E-004,0.309,0.000,0.000,0.224,0.000
 ZoneInfiltration Airflow Stats Nominal, OFFICE3_FLR_5 INFILTRATION,ALWAYS ON DISCRETE,OFFICE3_FLR_5 ZN,69.68,3.5,3.530E-002,5.067E-004,2.500E-004,0.427,0.000,0.000,0.224,0.000
 ZoneInfiltration Airflow Stats Nominal, OFFICE4_MULT6_FLR_5 INFILTRATION,ALWAYS ON DISCRETE,OFFICE4_MULT6_FLR_5 ZN,13.94,0.7,6.735E-003,4.833E-004,2.500E-004,0.408,0.000,0.000,0.224,0.000
 ZoneInfiltration Airflow Stats Nominal, OR1_FLR_2 INFILTRATION,ALWAYS ON DISCRETE,OR1_FLR_2 ZN,55.74,2.8,1.626E-002,2.917E-004,2.500E-004,0.246,0.000,0.000,0.224,0.000
 ZoneInfiltration Airflow Stats Nominal, OR2_MULT5_FLR_2 INFILTRATION,ALWAYS ON DISCRETE,OR2_MULT5_FLR_2 ZN,55.74,2.8,6.503E-003,1.167E-004,2.500E-004,9.843E-002,0.000,0.000,0.224,0.000
 ZoneInfiltration Airflow Stats Nominal, OR3_FLR_2 INFILTRATION,ALWAYS ON DISCRETE,OR3_FLR_2 ZN,55.74,2.8,9.755E-003,1.750E-004,2.500E-004,0.148,0.000,0.000,0.224,0.000
 ZoneInfiltration Airflow Stats Nominal, OR_NURSESTN_LOBBY_FLR_2 INFILTRATION,ALWAYS ON DISCRETE,OR_NURSESTN_LOBBY_FLR_2 ZN,1012.64,50.7,6.341E-002,6.261E-005,2.500E-004,5.282E-002,0.000,0.000,0.224,0.000
 ZoneInfiltration Airflow Stats Nominal, PATROOM1_MULT10_FLR_3 INFILTRATION,ALWAYS ON DISCRETE,PATROOM1_MULT10_FLR_3 ZN,20.90,1.0,4.877E-003,2.333E-004,2.500E-004,0.197,0.000,0.000,0.224,0.000
 ZoneInfiltration Airflow Stats Nominal, PATROOM1_MULT10_FLR_4 INFILTRATION,ALWAYS ON DISCRETE,PATROOM1_MULT10_FLR_4 ZN,20.90,1.0,4.877E-003,2.333E-004,2.500E-004,0.197,0.000,0.000,0.224,0.000
 ZoneInfiltration Airflow Stats Nominal, PATROOM2_FLR_3 INFILTRATION,ALWAYS ON DISCRETE,PATROOM2_FLR_3 ZN,34.84,1.7,1.301E-002,3.733E-004,2.500E-004,0.315,0.000,0.000,0.224,0.000
 ZoneInfiltration Airflow Stats Nominal, PATROOM2_FLR_4 INFILTRATION,ALWAYS ON DISCRETE,PATROOM2_FLR_4 ZN,34.84,1.7,1.301E-002,3.733E-004,2.500E-004,0.315,0.000,0.000,0.224,0.000
 ZoneInfiltration Airflow Stats Nominal, PATROOM3_MULT10_FLR_3 INFILTRATION,ALWAYS ON DISCRETE,PATROOM3_MULT10_FLR_3 ZN,20.21,1.0,4.715E-003,2.333E-004,2.500E-004,0.197,0.000,0.000,0.224,0.000
 ZoneInfiltration Airflow Stats Nominal, PATROOM3_MULT10_FLR_4 INFILTRATION,ALWAYS ON DISCRETE,PATROOM3_MULT10_FLR_4 ZN,20.21,1.0,4.715E-003,2.333E-004,2.500E-004,0.197,0.000,0.000,0.224,0.000
 ZoneInfiltration Airflow Stats Nominal, PATROOM4_FLR_3 INFILTRATION,ALWAYS ON DISCRETE,PATROOM4_FLR_3 ZN,34.84,1.7,1.301E-002,3.733E-004,2.500E-004,0.315,0.000,0.000,0.224,0.000
 ZoneInfiltration Airflow Stats Nominal, PATROOM4_FLR_4 INFILTRATION,ALWAYS ON DISCRETE,PATROOM4_FLR_4 ZN,34.84,1.7,1.301E-002,3.733E-004,2.500E-004,0.315,0.000,0.000,0.224,0.000
 ZoneInfiltration Airflow Stats Nominal, PATROOM5_MULT10_FLR_3 INFILTRATION,ALWAYS ON DISCRETE,PATROOM5_MULT10_FLR_3 ZN,20.90,1.0,4.877E-003,2.333E-004,2.500E-004,0.197,0.000,0.000,0.224,0.000
 ZoneInfiltration Airflow Stats Nominal, PATROOM5_MULT10_FLR_4 INFILTRATION,ALWAYS ON DISCRETE,PATROOM5_MULT10_FLR_4 ZN,20.90,1.0,4.877E-003,2.333E-004,2.500E-004,0.197,0.000,0.000,0.224,0.000
 ZoneInfiltration Airflow Stats Nominal, PATROOM6_FLR_3 INFILTRATION,ALWAYS ON DISCRETE,PATROOM6_FLR_3 ZN,27.87,1.4,1.138E-002,4.083E-004,2.500E-004,0.344,0.000,0.000,0.224,0.000
 ZoneInfiltration Airflow Stats Nominal, PATROOM6_FLR_4 INFILTRATION,ALWAYS ON DISCRETE,PATROOM6_FLR_4 ZN,27.87,1.4,1.138E-002,4.083E-004,2.500E-004,0.344,0.000,0.000,0.224,0.000
 ZoneInfiltration Airflow Stats Nominal, PATROOM7_MULT10_FLR_3 INFILTRATION,ALWAYS ON DISCRETE,PATROOM7_MULT10_FLR_3 ZN,20.21,1.0,4.715E-003,2.333E-004,2.500E-004,0.197,0.000,0.000,0.224,0.000
 ZoneInfiltration Airflow Stats Nominal, PATROOM7_MULT10_FLR_4 INFILTRATION,ALWAYS ON DISCRETE,PATROOM7_MULT10_FLR_4 ZN,20.21,1.0,4.715E-003,2.333E-004,2.500E-004,0.197,0.000,0.000,0.224,0.000
 ZoneInfiltration Airflow Stats Nominal, PATROOM8_FLR_3 INFILTRATION,ALWAYS ON DISCRETE,PATROOM8_FLR_3 ZN,27.87,1.4,1.138E-002,4.083E-004,2.500E-004,0.344,0.000,0.000,0.224,0.000
 ZoneInfiltration Airflow Stats Nominal, PATROOM8_FLR_4 INFILTRATION,ALWAYS ON DISCRETE,PATROOM8_FLR_4 ZN,27.87,1.4,1.138E-002,4.083E-004,2.500E-004,0.344,0.000,0.000,0.224,0.000
! <AirFlow Model>, Simple
 AirFlow Model, Simple
! <RoomAir Model>, Zone Name, Mixing/Mundt/UCSDDV/UCSDCV/UCSDUFI/UCSDUFE/User Defined
RoomAir Model,BASEMENT ZN,Mixing/Well-Stirred
RoomAir Model,CORRIDOR_FLR_1 ZN,Mixing/Well-Stirred
RoomAir Model,CORRIDOR_FLR_2 ZN,Mixing/Well-Stirred
RoomAir Model,CORRIDOR_FLR_5 ZN,Mixing/Well-Stirred
RoomAir Model,CORRIDOR_NW_FLR_3 ZN,Mixing/Well-Stirred
RoomAir Model,CORRIDOR_NW_FLR_4 ZN,Mixing/Well-Stirred
RoomAir Model,CORRIDOR_SE_FLR_3 ZN,Mixing/Well-Stirred
RoomAir Model,CORRIDOR_SE_FLR_4 ZN,Mixing/Well-Stirred
RoomAir Model,DINING_FLR_5 ZN,Mixing/Well-Stirred
RoomAir Model,ER_EXAM1_MULT4_FLR_1 ZN,Mixing/Well-Stirred
RoomAir Model,ER_EXAM3_MULT4_FLR_1 ZN,Mixing/Well-Stirred
RoomAir Model,ER_NURSESTN_LOBBY_FLR_1 ZN,Mixing/Well-Stirred
RoomAir Model,ER_TRAUMA1_FLR_1 ZN,Mixing/Well-Stirred
RoomAir Model,ER_TRAUMA2_FLR_1 ZN,Mixing/Well-Stirred
RoomAir Model,ER_TRIAGE_MULT4_FLR_1 ZN,Mixing/Well-Stirred
RoomAir Model,ICU_FLR_2 ZN,Mixing/Well-Stirred
RoomAir Model,ICU_NURSESTN_LOBBY_FLR_2 ZN,Mixing/Well-Stirred
RoomAir Model,IC_PATROOM1_MULT5_FLR_2 ZN,Mixing/Well-Stirred
RoomAir Model,IC_PATROOM2_FLR_2 ZN,Mixing/Well-Stirred
RoomAir Model,IC_PATROOM3_MULT6_FLR_2 ZN,Mixing/Well-Stirred
RoomAir Model,KITCHEN_FLR_5 ZN,Mixing/Well-Stirred
RoomAir Model,LAB_FLR_3 ZN,Mixing/Well-Stirred
RoomAir Model,LAB_FLR_4 ZN,Mixing/Well-Stirred
RoomAir Model,LOBBY_RECORDS_FLR_1 ZN,Mixing/Well-Stirred
RoomAir Model,NURSESTN_LOBBY_FLR_3 ZN,Mixing/Well-Stirred
RoomAir Model,NURSESTN_LOBBY_FLR_4 ZN,Mixing/Well-Stirred
RoomAir Model,NURSESTN_LOBBY_FLR_5 ZN,Mixing/Well-Stirred
RoomAir Model,OFFICE1_FLR_5 ZN,Mixing/Well-Stirred
RoomAir Model,OFFICE1_MULT4_FLR_1 ZN,Mixing/Well-Stirred
RoomAir Model,OFFICE2_MULT5_FLR_5 ZN,Mixing/Well-Stirred
RoomAir Model,OFFICE3_FLR_5 ZN,Mixing/Well-Stirred
RoomAir Model,OFFICE4_MULT6_FLR_5 ZN,Mixing/Well-Stirred
RoomAir Model,OR1_FLR_2 ZN,Mixing/Well-Stirred
RoomAir Model,OR2_MULT5_FLR_2 ZN,Mixing/Well-Stirred
RoomAir Model,OR3_FLR_2 ZN,Mixing/Well-Stirred
RoomAir Model,OR4_FLR_2 ZN,Mixing/Well-Stirred
RoomAir Model,OR_NURSESTN_LOBBY_FLR_2 ZN,Mixing/Well-Stirred
RoomAir Model,PATROOM1_MULT10_FLR_3 ZN,Mixing/Well-Stirred
RoomAir Model,PATROOM1_MULT10_FLR_4 ZN,Mixing/Well-Stirred
RoomAir Model,PATROOM2_FLR_3 ZN,Mixing/Well-Stirred
RoomAir Model,PATROOM2_FLR_4 ZN,Mixing/Well-Stirred
RoomAir Model,PATROOM3_MULT10_FLR_3 ZN,Mixing/Well-Stirred
RoomAir Model,PATROOM3_MULT10_FLR_4 ZN,Mixing/Well-Stirred
RoomAir Model,PATROOM4_FLR_3 ZN,Mixing/Well-Stirred
RoomAir Model,PATROOM4_FLR_4 ZN,Mixing/Well-Stirred
RoomAir Model,PATROOM5_MULT10_FLR_3 ZN,Mixing/Well-Stirred
RoomAir Model,PATROOM5_MULT10_FLR_4 ZN,Mixing/Well-Stirred
RoomAir Model,PATROOM6_FLR_3 ZN,Mixing/Well-Stirred
RoomAir Model,PATROOM6_FLR_4 ZN,Mixing/Well-Stirred
RoomAir Model,PATROOM7_MULT10_FLR_3 ZN,Mixing/Well-Stirred
RoomAir Model,PATROOM7_MULT10_FLR_4 ZN,Mixing/Well-Stirred
RoomAir Model,PATROOM8_FLR_3 ZN,Mixing/Well-Stirred
RoomAir Model,PATROOM8_FLR_4 ZN,Mixing/Well-Stirred
RoomAir Model,PHYSTHERAPY_FLR_3 ZN,Mixing/Well-Stirred
RoomAir Model,RADIOLOGY_FLR_4 ZN,Mixing/Well-Stirred
! <AirflowNetwork Model:Control>, No Multizone or Distribution/Multizone with Distribution/Multizone without Distribution/Multizone with Distribution only during Fan Operation
AirflowNetwork Model:Control,NoMultizoneOrDistribution
! <Zone Volume Capacitance Multiplier>, Sensible Heat Capacity Multiplier, Moisture Capacity Multiplier, Carbon Dioxide Capacity Multiplier, Generic Contaminant Capacity Multiplier
Zone Volume Capacitance Multiplier,   1.000 ,   1.000,   1.000,   1.000
! <Load Timesteps in Zone Design Calculation Averaging Window>, Value
 Load Timesteps in Zone Design Calculation Averaging Window,    6
! <Heating Sizing Factor Information>, Sizing Factor ID, Value
 Heating Sizing Factor Information, Global,   1.2500    
 Heating Sizing Factor Information, Zone BASEMENT ZN,   1.2500    
 Heating Sizing Factor Information, Zone CORRIDOR_FLR_1 ZN,   1.2500    
 Heating Sizing Factor Information, Zone CORRIDOR_FLR_2 ZN,   1.2500    
 Heating Sizing Factor Information, Zone CORRIDOR_FLR_5 ZN,   1.2500    
 Heating Sizing Factor Information, Zone CORRIDOR_NW_FLR_3 ZN,   1.2500    
 Heating Sizing Factor Information, Zone CORRIDOR_NW_FLR_4 ZN,   1.2500    
 Heating Sizing Factor Information, Zone CORRIDOR_SE_FLR_3 ZN,   1.2500    
 Heating Sizing Factor Information, Zone CORRIDOR_SE_FLR_4 ZN,   1.2500    
 Heating Sizing Factor Information, Zone DINING_FLR_5 ZN,   1.2500    
 Heating Sizing Factor Information, Zone ER_EXAM1_MULT4_FLR_1 ZN,   1.2500    
 Heating Sizing Factor Information, Zone ER_EXAM3_MULT4_FLR_1 ZN,   1.2500    
 Heating Sizing Factor Information, Zone ER_NURSESTN_LOBBY_FLR_1 ZN,   1.2500    
 Heating Sizing Factor Information, Zone ER_TRAUMA1_FLR_1 ZN,   1.2500    
 Heating Sizing Factor Information, Zone ER_TRAUMA2_FLR_1 ZN,   1.2500    
 Heating Sizing Factor Information, Zone ER_TRIAGE_MULT4_FLR_1 ZN,   1.2500    
 Heating Sizing Factor Information, Zone ICU_FLR_2 ZN,   1.2500    
 Heating Sizing Factor Information, Zone ICU_NURSESTN_LOBBY_FLR_2 ZN,   1.2500    
 Heating Sizing Factor Information, Zone IC_PATROOM1_MULT5_FLR_2 ZN,   1.2500    
 Heating Sizing Factor Information, Zone IC_PATROOM2_FLR_2 ZN,   1.2500    
 Heating Sizing Factor Information, Zone IC_PATROOM3_MULT6_FLR_2 ZN,   1.2500    
 Heating Sizing Factor Information, Zone KITCHEN_FLR_5 ZN,   1.2500    
 Heating Sizing Factor Information, Zone LAB_FLR_3 ZN,   1.2500    
 Heating Sizing Factor Information, Zone LAB_FLR_4 ZN,   1.2500    
 Heating Sizing Factor Information, Zone LOBBY_RECORDS_FLR_1 ZN,   1.2500    
 Heating Sizing Factor Information, Zone NURSESTN_LOBBY_FLR_3 ZN,   1.2500    
 Heating Sizing Factor Information, Zone NURSESTN_LOBBY_FLR_4 ZN,   1.2500    
[...]
 Warmup Convergence Information,ER_TRAUMA1_FLR_1 ZN,SizingPeriod: VANCOUVER INTL AP ANN CLG .4% CONDNS DB=>MWB,3.5976170124E-003,9.1713038656E-003,Pass,Pass,3.3470992848E-003,3.4678327335E-003,Pass,Pass
 Warmup Convergence Information,ER_TRAUMA2_FLR_1 ZN,SizingPeriod: VANCOUVER INTL AP ANN CLG .4% CONDNS DB=>MWB,3.5969820196E-003,9.0217460439E-003,Pass,Pass,2.9403489753E-003,3.3802055125E-003,Pass,Pass
 Warmup Convergence Information,ER_TRIAGE_MULT4_FLR_1 ZN,SizingPeriod: VANCOUVER INTL AP ANN CLG .4% CONDNS DB=>MWB,1.6476338112E-003,4.9891735297E-003,Pass,Pass,9.8188565148E-004,1.6829190354E-003,Pass,Pass
 Warmup Convergence Information,ICU_FLR_2 ZN,SizingPeriod: VANCOUVER INTL AP ANN CLG .4% CONDNS DB=>MWB,2.3061028258E-002,3.4914217615E-002,Pass,Pass,9.8514316345E-003,1.0236553243E-002,Pass,Pass
 Warmup Convergence Information,ICU_NURSESTN_LOBBY_FLR_2 ZN,SizingPeriod: VANCOUVER INTL AP ANN CLG .4% CONDNS DB=>MWB,4.1472997875E-014,3.0943044626E-014,Pass,Pass,1.6439254117E-003,7.3187512834E-004,Pass,Pass
 Warmup Convergence Information,IC_PATROOM1_MULT5_FLR_2 ZN,SizingPeriod: VANCOUVER INTL AP ANN CLG .4% CONDNS DB=>MWB,4.3224683092E-014,3.3934666923E-014,Pass,Pass,8.5434630269E-004,4.9662379618E-004,Pass,Pass
 Warmup Convergence Information,IC_PATROOM2_FLR_2 ZN,SizingPeriod: VANCOUVER INTL AP ANN CLG .4% CONDNS DB=>MWB,5.5881225573E-014,5.0089586052E-014,Pass,Pass,1.5921907067E-002,1.6742129786E-002,Pass,Pass
 Warmup Convergence Information,IC_PATROOM3_MULT6_FLR_2 ZN,SizingPeriod: VANCOUVER INTL AP ANN CLG .4% CONDNS DB=>MWB,7.2312526337E-014,7.3792452515E-014,Pass,Pass,2.8440205097E-002,2.4957092248E-002,Pass,Pass
 Warmup Convergence Information,KITCHEN_FLR_5 ZN,SizingPeriod: VANCOUVER INTL AP ANN CLG .4% CONDNS DB=>MWB,3.5506476341E-002,6.9213293437E-002,Pass,Pass,2.5147605886E-002,6.8585250400E-002,Pass,Pass
 Warmup Convergence Information,LAB_FLR_3 ZN,SizingPeriod: VANCOUVER INTL AP ANN CLG .4% CONDNS DB=>MWB,1.9868532011E-002,3.9968007486E-002,Pass,Pass,2.0468685393E-002,6.4976211948E-002,Pass,Pass
 Warmup Convergence Information,LAB_FLR_4 ZN,SizingPeriod: VANCOUVER INTL AP ANN CLG .4% CONDNS DB=>MWB,2.1175186909E-002,4.4830618760E-002,Pass,Pass,1.8613617851E-002,5.2150322523E-002,Pass,Pass
 Warmup Convergence Information,LOBBY_RECORDS_FLR_1 ZN,SizingPeriod: VANCOUVER INTL AP ANN CLG .4% CONDNS DB=>MWB,2.7952185270E-002,9.0643890675E-002,Pass,Pass,5.3673988638E-002,0.3134742428,Pass,Pass
 Warmup Convergence Information,NURSESTN_LOBBY_FLR_3 ZN,SizingPeriod: VANCOUVER INTL AP ANN CLG .4% CONDNS DB=>MWB,4.6120042955E-004,1.6950482878E-003,Pass,Pass,1.2758867297E-003,1.4623029406E-003,Pass,Pass
 Warmup Convergence Information,NURSESTN_LOBBY_FLR_4 ZN,SizingPeriod: VANCOUVER INTL AP ANN CLG .4% CONDNS DB=>MWB,9.1124006170E-004,3.3130140455E-003,Pass,Pass,2.4178030844E-003,2.5167845345E-003,Pass,Pass
 Warmup Convergence Information,NURSESTN_LOBBY_FLR_5 ZN,SizingPeriod: VANCOUVER INTL AP ANN CLG .4% CONDNS DB=>MWB,1.3904924560E-002,2.5248851041E-002,Pass,Pass,1.0744267369E-002,1.4375825379E-002,Pass,Pass
 Warmup Convergence Information,OFFICE1_FLR_5 ZN,SizingPeriod: VANCOUVER INTL AP ANN CLG .4% CONDNS DB=>MWB,2.9260960296E-002,5.1738245740E-002,Pass,Pass,6.4475846986E-002,0.3213219190,Pass,Pass
 Warmup Convergence Information,OFFICE1_MULT4_FLR_1 ZN,SizingPeriod: VANCOUVER INTL AP ANN CLG .4% CONDNS DB=>MWB,1.6413974739E-002,3.8289762478E-002,Pass,Pass,6.3090458934E-002,0.3242438799,Pass,Pass
 Warmup Convergence Information,OFFICE2_MULT5_FLR_5 ZN,SizingPeriod: VANCOUVER INTL AP ANN CLG .4% CONDNS DB=>MWB,4.3237350732E-002,7.3934700264E-002,Pass,Pass,7.4997138693E-002,0.4092933119,Pass,Pass
 Warmup Convergence Information,OFFICE3_FLR_5 ZN,SizingPeriod: VANCOUVER INTL AP ANN CLG .4% CONDNS DB=>MWB,3.2618372711E-002,5.0721761393E-002,Pass,Pass,6.6148951248E-002,0.3288754968,Pass,Pass
 Warmup Convergence Information,OFFICE4_MULT6_FLR_5 ZN,SizingPeriod: VANCOUVER INTL AP ANN CLG .4% CONDNS DB=>MWB,3.2697464651E-002,4.7378366657E-002,Pass,Pass,5.5122941270E-002,0.2614888135,Pass,Pass
 Warmup Convergence Information,OR1_FLR_2 ZN,SizingPeriod: VANCOUVER INTL AP ANN CLG .4% CONDNS DB=>MWB,4.5195635350E-003,1.0217263921E-002,Pass,Pass,2.4254104160E-003,2.1512876434E-003,Pass,Pass
 Warmup Convergence Information,OR2_MULT5_FLR_2 ZN,SizingPeriod: VANCOUVER INTL AP ANN CLG .4% CONDNS DB=>MWB,3.3450694132E-004,1.5754025433E-003,Pass,Pass,6.3432168060E-004,5.4423343408E-004,Pass,Pass
 Warmup Convergence Information,OR3_FLR_2 ZN,SizingPeriod: VANCOUVER INTL AP ANN CLG .4% CONDNS DB=>MWB,5.4327430179E-003,1.2246575032E-002,Pass,Pass,2.3482983700E-003,4.4350270058E-003,Pass,Pass
 Warmup Convergence Information,OR4_FLR_2 ZN,SizingPeriod: VANCOUVER INTL AP ANN CLG .4% CONDNS DB=>MWB,1.0418301656E-002,2.0358419669E-002,Pass,Pass,2.7904951779E-003,5.1374173344E-003,Pass,Pass
 Warmup Convergence Information,OR_NURSESTN_LOBBY_FLR_2 ZN,SizingPeriod: VANCOUVER INTL AP ANN CLG .4% CONDNS DB=>MWB,4.3175339847E-014,3.1580872154E-014,Pass,Pass,4.0843843273E-003,3.3031276562E-003,Pass,Pass
 Warmup Convergence Information,PATROOM1_MULT10_FLR_3 ZN,SizingPeriod: VANCOUVER INTL AP ANN CLG .4% CONDNS DB=>MWB,6.1679056924E-014,5.8412483217E-014,Pass,Pass,2.1954774429E-002,1.4166597027E-002,Pass,Pass
 Warmup Convergence Information,PATROOM1_MULT10_FLR_4 ZN,SizingPeriod: VANCOUVER INTL AP ANN CLG .4% CONDNS DB=>MWB,4.6357979184E-014,4.7641350747E-014,Pass,Pass,2.2063497760E-002,1.4179271984E-002,Pass,Pass
 Warmup Convergence Information,PATROOM2_FLR_3 ZN,SizingPeriod: VANCOUVER INTL AP ANN CLG .4% CONDNS DB=>MWB,6.5503158453E-014,6.6230983961E-014,Pass,Pass,1.7075439957E-002,1.5970646555E-002,Pass,Pass
 Warmup Convergence Information,PATROOM2_FLR_4 ZN,SizingPeriod: VANCOUVER INTL AP ANN CLG .4% CONDNS DB=>MWB,7.1350333049E-014,7.2297335406E-014,Pass,Pass,1.7705871589E-002,1.6146285623E-002,Pass,Pass
 Warmup Convergence Information,PATROOM3_MULT10_FLR_3 ZN,SizingPeriod: VANCOUVER INTL AP ANN CLG .4% CONDNS DB=>MWB,6.8217036958E-014,6.3044097218E-014,Pass,Pass,2.6905210857E-002,2.8766560868E-002,Pass,Pass
 Warmup Convergence Information,PATROOM3_MULT10_FLR_4 ZN,SizingPeriod: VANCOUVER INTL AP ANN CLG .4% CONDNS DB=>MWB,6.7649589634E-014,6.0436573205E-014,Pass,Pass,2.6993312090E-002,2.8823426550E-002,Pass,Pass
 Warmup Convergence Information,PATROOM4_FLR_3 ZN,SizingPeriod: VANCOUVER INTL AP ANN CLG .4% CONDNS DB=>MWB,6.2517892098E-014,5.4108980514E-014,Pass,Pass,1.5833876687E-002,1.9802282529E-002,Pass,Pass
 Warmup Convergence Information,PATROOM4_FLR_4 ZN,SizingPeriod: VANCOUVER INTL AP ANN CLG .4% CONDNS DB=>MWB,5.8249701359E-014,5.0827848280E-014,Pass,Pass,1.6121687703E-002,2.0489322994E-002,Pass,Pass
 Warmup Convergence Information,PATROOM5_MULT10_FLR_3 ZN,SizingPeriod: VANCOUVER INTL AP ANN CLG .4% CONDNS DB=>MWB,4.4507607476E-014,3.9920728850E-014,Pass,Pass,1.3112654899E-002,1.2331611902E-002,Pass,Pass
 Warmup Convergence Information,PATROOM5_MULT10_FLR_4 ZN,SizingPeriod: VANCOUVER INTL AP ANN CLG .4% CONDNS DB=>MWB,5.2772601104E-014,3.8748674533E-014,Pass,Pass,1.3219156194E-002,1.2392971918E-002,Pass,Pass
 Warmup Convergence Information,PATROOM6_FLR_3 ZN,SizingPeriod: VANCOUVER INTL AP ANN CLG .4% CONDNS DB=>MWB,7.9171237467E-014,7.0263668470E-014,Pass,Pass,1.8519764330E-002,1.4256703954E-002,Pass,Pass
 Warmup Convergence Information,PATROOM6_FLR_4 ZN,SizingPeriod: VANCOUVER INTL AP ANN CLG .4% CONDNS DB=>MWB,8.2723951146E-014,7.6312926588E-014,Pass,Pass,1.9938736749E-002,1.4333481094E-002,Pass,Pass
 Warmup Convergence Information,PATROOM7_MULT10_FLR_3 ZN,SizingPeriod: VANCOUVER INTL AP ANN CLG .4% CONDNS DB=>MWB,8.1515041630E-014,8.3177199310E-014,Pass,Pass,2.8596565234E-002,2.4915689243E-002,Pass,Pass
 Warmup Convergence Information,PATROOM7_MULT10_FLR_4 ZN,SizingPeriod: VANCOUVER INTL AP ANN CLG .4% CONDNS DB=>MWB,6.1901101529E-014,7.8214161233E-014,Pass,Pass,2.8711451446E-002,2.4917151052E-002,Pass,Pass
 Warmup Convergence Information,PATROOM8_FLR_3 ZN,SizingPeriod: VANCOUVER INTL AP ANN CLG .4% CONDNS DB=>MWB,6.2073802888E-014,6.8575892780E-014,Pass,Pass,1.8711983905E-002,1.7750328642E-002,Pass,Pass
 Warmup Convergence Information,PATROOM8_FLR_4 ZN,SizingPeriod: VANCOUVER INTL AP ANN CLG .4% CONDNS DB=>MWB,6.8019663975E-014,5.7098765239E-014,Pass,Pass,2.0122741562E-002,1.7505144711E-002,Pass,Pass
 Warmup Convergence Information,PHYSTHERAPY_FLR_3 ZN,SizingPeriod: VANCOUVER INTL AP ANN CLG .4% CONDNS DB=>MWB,2.3450850881E-002,4.1306255032E-002,Pass,Pass,1.6941219656E-002,5.3251558841E-002,Pass,Pass
 Warmup Convergence Information,RADIOLOGY_FLR_4 ZN,SizingPeriod: VANCOUVER INTL AP ANN CLG .4% CONDNS DB=>MWB,4.8948499575E-014,4.1859594287E-014,Pass,Pass,2.1256039174E-003,1.2486356391E-003,Pass,Pass
Environment,VANCOUVER INTL AP ANN HTG 99.6% CONDNS DB,SizingPeriod:DesignDay,12/21,12/21,WinterDesignDay,1,N/A,N/A,N/A,N/A,N/A,N/A
Environment:Daylight Saving,No,SizingPeriod:DesignDay
Environment:Design Day Data,-6.10,0.00,DefaultMultipliers,101273,100,3.0,0.00,No,No
Environment:Design Day Misc,355,1232.8,0.1424,5.7719E-002,1.0,2.45,-23.5,ASHRAEClearSky
Environment:WarmupDays,  6
 Warmup Convergence Information,BASEMENT ZN,SizingPeriod: VANCOUVER INTL AP ANN HTG 99.6% CONDNS DB,5.5555555556E-002,0.3647066571,Pass,Pass,0.4888589175,4.2962447083,Pass,Pass
 Warmup Convergence Information,CORRIDOR_FLR_1 ZN,SizingPeriod: VANCOUVER INTL AP ANN HTG 99.6% CONDNS DB,5.6500284505E-002,0.2588328520,Pass,Pass,0.5570068731,5.0873545014,Pass,Pass
 Warmup Convergence Information,CORRIDOR_FLR_2 ZN,SizingPeriod: VANCOUVER INTL AP ANN HTG 99.6% CONDNS DB,5.2826746440E-002,0.2473475485,Pass,Pass,0.2563670678,1.7429875717,Pass,Pass
 Warmup Convergence Information,CORRIDOR_FLR_5 ZN,SizingPeriod: VANCOUVER INTL AP ANN HTG 99.6% CONDNS DB,6.3248942566E-002,0.3038140300,Pass,Pass,0.1826961485,0.6763216732,Pass,Pass
 Warmup Convergence Information,CORRIDOR_NW_FLR_3 ZN,SizingPeriod: VANCOUVER INTL AP ANN HTG 99.6% CONDNS DB,4.5679312182E-002,0.2269127358,Pass,Pass,0.3248505701,2.5826767861,Pass,Pass
 Warmup Convergence Information,CORRIDOR_NW_FLR_4 ZN,SizingPeriod: VANCOUVER INTL AP ANN HTG 99.6% CONDNS DB,5.3481360235E-002,0.2441163010,Pass,Pass,0.3630329232,2.2206055194,Pass,Pass
 Warmup Convergence Information,CORRIDOR_SE_FLR_3 ZN,SizingPeriod: VANCOUVER INTL AP ANN HTG 99.6% CONDNS DB,4.7255793810E-002,0.2294795951,Pass,Pass,1.4481982397,15.3634836465,Pass,Pass
 Warmup Convergence Information,CORRIDOR_SE_FLR_4 ZN,SizingPeriod: VANCOUVER INTL AP ANN HTG 99.6% CONDNS DB,5.3203373902E-002,0.2440121786,Pass,Pass,0.2868346928,1.4765153468,Pass,Pass
 Warmup Convergence Information,DINING_FLR_5 ZN,SizingPeriod: VANCOUVER INTL AP ANN HTG 99.6% CONDNS DB,5.5555555556E-002,0.3681752751,Pass,Pass,0.2064648551,1.0225798746,Pass,Pass
 Warmup Convergence Information,ER_EXAM1_MULT4_FLR_1 ZN,SizingPeriod: VANCOUVER INTL AP ANN HTG 99.6% CONDNS DB,5.5555555556E-002,0.3648614089,Pass,Pass,0.2892823278,2.5783615421,Pass,Pass
 Warmup Convergence Information,ER_EXAM3_MULT4_FLR_1 ZN,SizingPeriod: VANCOUVER INTL AP ANN HTG 99.6% CONDNS DB,5.5555555556E-002,0.3639981717,Pass,Pass,0.1162703187,0.6576346985,Pass,Pass
 Warmup Convergence Information,ER_NURSESTN_LOBBY_FLR_1 ZN,SizingPeriod: VANCOUVER INTL AP ANN HTG 99.6% CONDNS DB,5.9259841942E-002,0.3221426860,Pass,Pass,0.1264528618,0.5797955719,Pass,Pass
 Warmup Convergence Information,ER_TRAUMA1_FLR_1 ZN,SizingPeriod: VANCOUVER INTL AP ANN HTG 99.6% CONDNS DB,5.5555555556E-002,0.3687135061,Pass,Pass,0.1089223172,0.5283415713,Pass,Pass
 Warmup Convergence Information,ER_TRAUMA2_FLR_1 ZN,SizingPeriod: VANCOUVER INTL AP ANN HTG 99.6% CONDNS DB,5.5555555556E-002,0.3685854292,Pass,Pass,0.1136142573,0.5760484797,Pass,Pass
 Warmup Convergence Information,ER_TRIAGE_MULT4_FLR_1 ZN,SizingPeriod: VANCOUVER INTL AP ANN HTG 99.6% CONDNS DB,5.5555555556E-002,0.3648614089,Pass,Pass,0.2892823279,2.5783615427,Pass,Pass
 Warmup Convergence Information,ICU_FLR_2 ZN,SizingPeriod: VANCOUVER INTL AP ANN HTG 99.6% CONDNS DB,5.5555555556E-002,0.3702088258,Pass,Pass,0.1038524734,0.6205576477,Pass,Pass
 Warmup Convergence Information,ICU_NURSESTN_LOBBY_FLR_2 ZN,SizingPeriod: VANCOUVER INTL AP ANN HTG 99.6% CONDNS DB,5.9400560748E-002,0.3202221358,Pass,Pass,0.1444613643,0.7647423969,Pass,Pass
 Warmup Convergence Information,IC_PATROOM1_MULT5_FLR_2 ZN,SizingPeriod: VANCOUVER INTL AP ANN HTG 99.6% CONDNS DB,5.7560689637E-002,0.3034910329,Pass,Pass,0.2774346499,1.2311906722,Pass,Pass
 Warmup Convergence Information,IC_PATROOM2_FLR_2 ZN,SizingPeriod: VANCOUVER INTL AP ANN HTG 99.6% CONDNS DB,5.7081302429E-002,0.3328951593,Pass,Pass,5.2428894295E-002,0.1469814840,Pass,Pass
 Warmup Convergence Information,IC_PATROOM3_MULT6_FLR_2 ZN,SizingPeriod: VANCOUVER INTL AP ANN HTG 99.6% CONDNS DB,5.7028937759E-002,0.3249046150,Pass,Pass,7.0979229111E-002,0.1475612935,Pass,Pass
 Warmup Convergence Information,KITCHEN_FLR_5 ZN,SizingPeriod: VANCOUVER INTL AP ANN HTG 99.6% CONDNS DB,5.7495961463E-002,0.3340425646,Pass,Pass,0.9647581389,9.0021262762,Pass,Pass
 Warmup Convergence Information,LAB_FLR_3 ZN,SizingPeriod: VANCOUVER INTL AP ANN HTG 99.6% CONDNS DB,5.6828272839E-002,0.3421343890,Pass,Pass,0.4020900760,2.3253672310,Pass,Pass
 Warmup Convergence Information,LAB_FLR_4 ZN,SizingPeriod: VANCOUVER INTL AP ANN HTG 99.6% CONDNS DB,5.6778099445E-002,0.3433669744,Pass,Pass,1.0492520514,7.1353644182,Pass,Pass
 Warmup Convergence Information,LOBBY_RECORDS_FLR_1 ZN,SizingPeriod: VANCOUVER INTL AP ANN HTG 99.6% CONDNS DB,7.1620192265E-002,0.3041746071,Pass,Pass,0.1872603555,0.9691791785,Pass,Pass
 Warmup Convergence Information,NURSESTN_LOBBY_FLR_3 ZN,SizingPeriod: VANCOUVER INTL AP ANN HTG 99.6% CONDNS DB,5.9444032704E-002,0.3203532016,Pass,Pass,0.1400816891,0.7490040265,Pass,Pass
 Warmup Convergence Information,NURSESTN_LOBBY_FLR_4 ZN,SizingPeriod: VANCOUVER INTL AP ANN HTG 99.6% CONDNS DB,5.9314788960E-002,0.3207170909,Pass,Pass,0.1248589299,0.5688435357,Pass,Pass
 Warmup Convergence Information,NURSESTN_LOBBY_FLR_5 ZN,SizingPeriod: VANCOUVER INTL AP ANN HTG 99.6% CONDNS DB,5.7872888053E-002,0.3332645009,Pass,Pass,1.0010777121,8.0774735900,Pass,Pass
 Warmup Convergence Information,OFFICE1_FLR_5 ZN,SizingPeriod: VANCOUVER INTL AP ANN HTG 99.6% CONDNS DB,5.7396723577E-002,0.3130797920,Pass,Pass,5.7824851465E-002,0.1694688506,Pass,Pass
 Warmup Convergence Information,OFFICE1_MULT4_FLR_1 ZN,SizingPeriod: VANCOUVER INTL AP ANN HTG 99.6% CONDNS DB,5.7513486879E-002,0.2756347613,Pass,Pass,0.1554215413,0.6220712322,Pass,Pass
 Warmup Convergence Information,OFFICE2_MULT5_FLR_5 ZN,SizingPeriod: VANCOUVER INTL AP ANN HTG 99.6% CONDNS DB,5.8028644376E-002,0.2951989268,Pass,Pass,7.9638574538E-002,0.1590143345,Pass,Pass
 Warmup Convergence Information,OFFICE3_FLR_5 ZN,SizingPeriod: VANCOUVER INTL AP ANN HTG 99.6% CONDNS DB,5.7277332984E-002,0.3140469528,Pass,Pass,5.9348370071E-002,0.1963148050,Pass,Pass
 Warmup Convergence Information,OFFICE4_MULT6_FLR_5 ZN,SizingPeriod: VANCOUVER INTL AP ANN HTG 99.6% CONDNS DB,5.6430107887E-002,0.2966501636,Pass,Pass,7.2711393872E-002,0.2058978853,Pass,Pass
 Warmup Convergence Information,OR1_FLR_2 ZN,SizingPeriod: VANCOUVER INTL AP ANN HTG 99.6% CONDNS DB,5.5555555556E-002,0.3686265082,Pass,Pass,0.2800278502,2.5630754732,Pass,Pass
 Warmup Convergence Information,OR2_MULT5_FLR_2 ZN,SizingPeriod: VANCOUVER INTL AP ANN HTG 99.6% CONDNS DB,5.5555555556E-002,0.3637661554,Pass,Pass,6.8076013568E-002,0.2751026221,Pass,Pass
 Warmup Convergence Information,OR3_FLR_2 ZN,SizingPeriod: VANCOUVER INTL AP ANN HTG 99.6% CONDNS DB,5.5555555556E-002,0.3657493328,Pass,Pass,6.7926788827E-002,0.2908338470,Pass,Pass
 Warmup Convergence Information,OR4_FLR_2 ZN,SizingPeriod: VANCOUVER INTL AP ANN HTG 99.6% CONDNS DB,5.5555555575E-002,0.3664641551,Pass,Pass,4.1417216593E-002,0.1667027969,Pass,Pass
 Warmup Convergence Information,OR_NURSESTN_LOBBY_FLR_2 ZN,SizingPeriod: VANCOUVER INTL AP ANN HTG 99.6% CONDNS DB,5.9046544183E-002,0.3233601566,Pass,Pass,0.1220603537,0.5192335826,Pass,Pass
 Warmup Convergence Information,PATROOM1_MULT10_FLR_3 ZN,SizingPeriod: VANCOUVER INTL AP ANN HTG 99.6% CONDNS DB,5.7010465712E-002,0.3259822617,Pass,Pass,7.4608388864E-002,0.1513336548,Pass,Pass
 Warmup Convergence Information,PATROOM1_MULT10_FLR_4 ZN,SizingPeriod: VANCOUVER INTL AP ANN HTG 99.6% CONDNS DB,5.6986741927E-002,0.3264273584,Pass,Pass,7.8888056709E-002,0.1595107411,Pass,Pass
 Warmup Convergence Information,PATROOM2_FLR_3 ZN,SizingPeriod: VANCOUVER INTL AP ANN HTG 99.6% CONDNS DB,5.6731674851E-002,0.3382376376,Pass,Pass,6.4633519980E-002,0.1717066631,Pass,Pass
 Warmup Convergence Information,PATROOM2_FLR_4 ZN,SizingPeriod: VANCOUVER INTL AP ANN HTG 99.6% CONDNS DB,5.6623237234E-002,0.3390837307,Pass,Pass,0.1227338497,0.3460587106,Pass,Pass
 Warmup Convergence Information,PATROOM3_MULT10_FLR_3 ZN,SizingPeriod: VANCOUVER INTL AP ANN HTG 99.6% CONDNS DB,5.6990827874E-002,0.3257275182,Pass,Pass,7.5271701587E-002,0.1557015830,Pass,Pass
 Warmup Convergence Information,PATROOM3_MULT10_FLR_4 ZN,SizingPeriod: VANCOUVER INTL AP ANN HTG 99.6% CONDNS DB,5.6966756947E-002,0.3261695391,Pass,Pass,7.9592172986E-002,0.1645701980,Pass,Pass
 Warmup Convergence Information,PATROOM4_FLR_3 ZN,SizingPeriod: VANCOUVER INTL AP ANN HTG 99.6% CONDNS DB,5.6763444097E-002,0.3377125204,Pass,Pass,5.8074625120E-002,0.1550776292,Pass,Pass
 Warmup Convergence Information,PATROOM4_FLR_4 ZN,SizingPeriod: VANCOUVER INTL AP ANN HTG 99.6% CONDNS DB,5.6665897928E-002,0.3380799598,Pass,Pass,0.2560682109,1.8793636074,Pass,Pass
 Warmup Convergence Information,PATROOM5_MULT10_FLR_3 ZN,SizingPeriod: VANCOUVER INTL AP ANN HTG 99.6% CONDNS DB,5.7010877790E-002,0.3259887636,Pass,Pass,7.4627304249E-002,0.1513340839,Pass,Pass
 Warmup Convergence Information,PATROOM5_MULT10_FLR_4 ZN,SizingPeriod: VANCOUVER INTL AP ANN HTG 99.6% CONDNS DB,5.6987184405E-002,0.3264339913,Pass,Pass,7.8920509211E-002,0.1595339182,Pass,Pass
 Warmup Convergence Information,PATROOM6_FLR_3 ZN,SizingPeriod: VANCOUVER INTL AP ANN HTG 99.6% CONDNS DB,5.6590817332E-002,0.3395338151,Pass,Pass,0.1269419908,0.3911700063,Pass,Pass
 Warmup Convergence Information,PATROOM6_FLR_4 ZN,SizingPeriod: VANCOUVER INTL AP ANN HTG 99.6% CONDNS DB,5.6351735910E-002,0.3433058049,Pass,Pass,0.1489087026,0.5336059148,Pass,Pass
 Warmup Convergence Information,PATROOM7_MULT10_FLR_3 ZN,SizingPeriod: VANCOUVER INTL AP ANN HTG 99.6% CONDNS DB,5.6976779876E-002,0.3252692262,Pass,Pass,7.3503643893E-002,0.1545324034,Pass,Pass
 Warmup Convergence Information,PATROOM7_MULT10_FLR_4 ZN,SizingPeriod: VANCOUVER INTL AP ANN HTG 99.6% CONDNS DB,5.6953625297E-002,0.3257510228,Pass,Pass,7.7302032943E-002,0.1608387471,Pass,Pass
 Warmup Convergence Information,PATROOM8_FLR_3 ZN,SizingPeriod: VANCOUVER INTL AP ANN HTG 99.6% CONDNS DB,5.6484025784E-002,0.3414532832,Pass,Pass,0.2476821624,1.5258165494,Pass,Pass
 Warmup Convergence Information,PATROOM8_FLR_4 ZN,SizingPeriod: VANCOUVER INTL AP ANN HTG 99.6% CONDNS DB,5.6335895105E-002,0.3435761130,Pass,Pass,3.1222100998,35.8878236060,Pass,Pass
 Warmup Convergence Information,PHYSTHERAPY_FLR_3 ZN,SizingPeriod: VANCOUVER INTL AP ANN HTG 99.6% CONDNS DB,5.6746919846E-002,0.3474149315,Pass,Pass,0.1469048438,0.7217419621,Pass,Pass
 Warmup Convergence Information,RADIOLOGY_FLR_4 ZN,SizingPeriod: VANCOUVER INTL AP ANN HTG 99.6% CONDNS DB,5.7549943929E-002,0.3366558768,Pass,Pass,6.3944637054E-002,0.2867312282,Pass,Pass
! <Program Control Information:Threads/Parallel Sims>, Threading Supported,Maximum Number of Threads, Env Set Threads (OMP_NUM_THREADS), EP Env Set Threads (EP_OMP_NUM_THREADS), IDF Set Threads, Number of Threads Used (Interior Radiant Exchange), Number Nominal Surfaces, Number Parallel Sims
Program Control:Threads/Parallel Sims, No,1, N/A, N/A, N/A, N/A, N/A, N/A
End of Data
