! Program Version,EnergyPlus, Version 8.9.0-eba93e8e1b, YMD=2018.09.18 16:58,
! Output:Meter Objects (applicable to this run)
Output:Meter,Electricity:Facility,hourly; !- [J]
Output:Meter:Cumulative,Electricity:Facility,hourly; !- [J]
Output:Meter,Electricity:Building,hourly; !- [J]
Output:Meter:Cumulative,Electricity:Building,hourly; !- [J]
Output:Meter,Electricity:Zone:SP-CORRIDOR_FLR_1 SYS-3 FLR-2 SCH-B HPLCMT-NORTH ZN,hourly; !- [J]
Output:Meter:Cumulative,Electricity:Zone:SP-CORRIDOR_FLR_1 SYS-3 FLR-2 SCH-B HPLCMT-NORTH ZN,hourly; !- [J]
Output:Meter,InteriorLights:Electricity,hourly; !- [J]
Output:Meter:Cumulative,InteriorLights:Electricity,hourly; !- [J]
Output:Meter,InteriorLights:Electricity:Zone:SP-CORRIDOR_FLR_1 SYS-3 FLR-2 SCH-B HPLCMT-NORTH ZN,hourly; !- [J]
Output:Meter:Cumulative,InteriorLights:Electricity:Zone:SP-CORRIDOR_FLR_1 SYS-3 FLR-2 SCH-B HPLCMT-NORTH ZN,hourly; !- [J]
Output:Meter,General:InteriorLights:Electricity,hourly; !- [J]
Output:Meter:Cumulative,General:InteriorLights:Electricity,hourly; !- [J]
Output:Meter,Electricity:Zone:SP-CORRIDOR_FLR_2 SYS-3 FLR-3 SCH-B HPLCMT-NORTH ZN,hourly; !- [J]
Output:Meter:Cumulative,Electricity:Zone:SP-CORRIDOR_FLR_2 SYS-3 FLR-3 SCH-B HPLCMT-NORTH ZN,hourly; !- [J]
Output:Meter,InteriorLights:Electricity:Zone:SP-CORRIDOR_FLR_2 SYS-3 FLR-3 SCH-B HPLCMT-NORTH ZN,hourly; !- [J]
Output:Meter:Cumulative,InteriorLights:Electricity:Zone:SP-CORRIDOR_FLR_2 SYS-3 FLR-3 SCH-B HPLCMT-NORTH ZN,hourly; !- [J]
Output:Meter,Electricity:Zone:SP-CORRIDOR_FLR_5 SYS-3 FLR-7 SCH-B HPLCMT-NORTH ZN,hourly; !- [J]
Output:Meter:Cumulative,Electricity:Zone:SP-CORRIDOR_FLR_5 SYS-3 FLR-7 SCH-B HPLCMT-NORTH ZN,hourly; !- [J]
Output:Meter,InteriorLights:Electricity:Zone:SP-CORRIDOR_FLR_5 SYS-3 FLR-7 SCH-B HPLCMT-NORTH ZN,hourly; !- [J]
Output:Meter:Cumulative,InteriorLights:Electricity:Zone:SP-CORRIDOR_FLR_5 SYS-3 FLR-7 SCH-B HPLCMT-NORTH ZN,hourly; !- [J]
Output:Meter,Electricity:Zone:SP-CORRIDOR_NW_FLR_3 SYS-3 FLR-4 SCH-B HPLCMT-NORTH ZN,hourly; !- [J]
Output:Meter:Cumulative,Electricity:Zone:SP-CORRIDOR_NW_FLR_3 SYS-3 FLR-4 SCH-B HPLCMT-NORTH ZN,hourly; !- [J]
Output:Meter,InteriorLights:Electricity:Zone:SP-CORRIDOR_NW_FLR_3 SYS-3 FLR-4 SCH-B HPLCMT-NORTH ZN,hourly; !- [J]
Output:Meter:Cumulative,InteriorLights:Electricity:Zone:SP-CORRIDOR_NW_FLR_3 SYS-3 FLR-4 SCH-B HPLCMT-NORTH ZN,hourly; !- [J]
Output:Meter,Electricity:Zone:SP-CORRIDOR_NW_FLR_4 SYS-3 FLR-5 SCH-B HPLCMT-NORTH ZN,hourly; !- [J]
Output:Meter:Cumulative,Electricity:Zone:SP-CORRIDOR_NW_FLR_4 SYS-3 FLR-5 SCH-B HPLCMT-NORTH ZN,hourly; !- [J]
Output:Meter,InteriorLights:Electricity:Zone:SP-CORRIDOR_NW_FLR_4 SYS-3 FLR-5 SCH-B HPLCMT-NORTH ZN,hourly; !- [J]
Output:Meter:Cumulative,InteriorLights:Electricity:Zone:SP-CORRIDOR_NW_FLR_4 SYS-3 FLR-5 SCH-B HPLCMT-NORTH ZN,hourly; !- [J]
Output:Meter,Electricity:Zone:SP-CORRIDOR_SE_FLR_3 SYS-3 FLR-4 SCH-B HPLCMT-SOUTH ZN,hourly; !- [J]
Output:Meter:Cumulative,Electricity:Zone:SP-CORRIDOR_SE_FLR_3 SYS-3 FLR-4 SCH-B HPLCMT-SOUTH ZN,hourly; !- [J]
Output:Meter,InteriorLights:Electricity:Zone:SP-CORRIDOR_SE_FLR_3 SYS-3 FLR-4 SCH-B HPLCMT-SOUTH ZN,hourly; !- [J]
Output:Meter:Cumulative,InteriorLights:Electricity:Zone:SP-CORRIDOR_SE_FLR_3 SYS-3 FLR-4 SCH-B HPLCMT-SOUTH ZN,hourly; !- [J]
Output:Meter,Electricity:Zone:SP-CORRIDOR_SE_FLR_4 SYS-3 FLR-5 SCH-B HPLCMT-SOUTH ZN,hourly; !- [J]
Output:Meter:Cumulative,Electricity:Zone:SP-CORRIDOR_SE_FLR_4 SYS-3 FLR-5 SCH-B HPLCMT-SOUTH ZN,hourly; !- [J]
Output:Meter,InteriorLights:Electricity:Zone:SP-CORRIDOR_SE_FLR_4 SYS-3 FLR-5 SCH-B HPLCMT-SOUTH ZN,hourly; !- [J]
Output:Meter:Cumulative,InteriorLights:Electricity:Zone:SP-CORRIDOR_SE_FLR_4 SYS-3 FLR-5 SCH-B HPLCMT-SOUTH ZN,hourly; !- [J]
Output:Meter,Electricity:Zone:SP-DINING_FLR_5 SYS-3 FLR-7 SCH-B HPLCMT-SOUTH ZN,hourly; !- [J]
Output:Meter:Cumulative,Electricity:Zone:SP-DINING_FLR_5 SYS-3 FLR-7 SCH-B HPLCMT-SOUTH ZN,hourly; !- [J]
Output:Meter,InteriorLights:Electricity:Zone:SP-DINING_FLR_5 SYS-3 FLR-7 SCH-B HPLCMT-SOUTH ZN,hourly; !- [J]
Output:Meter:Cumulative,InteriorLights:Electricity:Zone:SP-DINING_FLR_5 SYS-3 FLR-7 SCH-B HPLCMT-SOUTH ZN,hourly; !- [J]
Output:Meter,Electricity:Zone:SP-KITCHEN_FLR_5 SYS-3 FLR-7 SCH-B HPLCMT-NORTH ZN,hourly; !- [J]
Output:Meter:Cumulative,Electricity:Zone:SP-KITCHEN_FLR_5 SYS-3 FLR-7 SCH-B HPLCMT-NORTH ZN,hourly; !- [J]
Output:Meter,InteriorLights:Electricity:Zone:SP-KITCHEN_FLR_5 SYS-3 FLR-7 SCH-B HPLCMT-NORTH ZN,hourly; !- [J]
Output:Meter:Cumulative,InteriorLights:Electricity:Zone:SP-KITCHEN_FLR_5 SYS-3 FLR-7 SCH-B HPLCMT-NORTH ZN,hourly; !- [J]
Output:Meter,Electricity:Zone:SP-RADIOLOGY_FLR_4 SYS-3 FLR-5 SCH-H HPLCMT-CORE ZN,hourly; !- [J]
Output:Meter:Cumulative,Electricity:Zone:SP-RADIOLOGY_FLR_4 SYS-3 FLR-5 SCH-H HPLCMT-CORE ZN,hourly; !- [J]
Output:Meter,InteriorLights:Electricity:Zone:SP-RADIOLOGY_FLR_4 SYS-3 FLR-5 SCH-H HPLCMT-CORE ZN,hourly; !- [J]
Output:Meter:Cumulative,InteriorLights:Electricity:Zone:SP-RADIOLOGY_FLR_4 SYS-3 FLR-5 SCH-H HPLCMT-CORE ZN,hourly; !- [J]
Output:Meter,Electricity:Zone:SP-ER_NURSESTN_LOBBY_FLR_1 SYS-3 FLR-2 SCH-H HPLCMT-EAST ZN,hourly; !- [J]
Output:Meter:Cumulative,Electricity:Zone:SP-ER_NURSESTN_LOBBY_FLR_1 SYS-3 FLR-2 SCH-H HPLCMT-EAST ZN,hourly; !- [J]
Output:Meter,InteriorLights:Electricity:Zone:SP-ER_NURSESTN_LOBBY_FLR_1 SYS-3 FLR-2 SCH-H HPLCMT-EAST ZN,hourly; !- [J]
Output:Meter:Cumulative,InteriorLights:Electricity:Zone:SP-ER_NURSESTN_LOBBY_FLR_1 SYS-3 FLR-2 SCH-H HPLCMT-EAST ZN,hourly; !- [J]
Output:Meter,Electricity:Zone:SP-ICU_NURSESTN_LOBBY_FLR_2 SYS-3 FLR-3 SCH-H HPLCMT-CORE ZN,hourly; !- [J]
Output:Meter:Cumulative,Electricity:Zone:SP-ICU_NURSESTN_LOBBY_FLR_2 SYS-3 FLR-3 SCH-H HPLCMT-CORE ZN,hourly; !- [J]
Output:Meter,InteriorLights:Electricity:Zone:SP-ICU_NURSESTN_LOBBY_FLR_2 SYS-3 FLR-3 SCH-H HPLCMT-CORE ZN,hourly; !- [J]
Output:Meter:Cumulative,InteriorLights:Electricity:Zone:SP-ICU_NURSESTN_LOBBY_FLR_2 SYS-3 FLR-3 SCH-H HPLCMT-CORE ZN,hourly; !- [J]
Output:Meter,Electricity:Zone:SP-NURSESTN_LOBBY_FLR_3 SYS-3 FLR-4 SCH-H HPLCMT-CORE ZN,hourly; !- [J]
Output:Meter:Cumulative,Electricity:Zone:SP-NURSESTN_LOBBY_FLR_3 SYS-3 FLR-4 SCH-H HPLCMT-CORE ZN,hourly; !- [J]
Output:Meter,InteriorLights:Electricity:Zone:SP-NURSESTN_LOBBY_FLR_3 SYS-3 FLR-4 SCH-H HPLCMT-CORE ZN,hourly; !- [J]
Output:Meter:Cumulative,InteriorLights:Electricity:Zone:SP-NURSESTN_LOBBY_FLR_3 SYS-3 FLR-4 SCH-H HPLCMT-CORE ZN,hourly; !- [J]
Output:Meter,Electricity:Zone:SP-NURSESTN_LOBBY_FLR_4 SYS-3 FLR-5 SCH-H HPLCMT-CORE ZN,hourly; !- [J]
Output:Meter:Cumulative,Electricity:Zone:SP-NURSESTN_LOBBY_FLR_4 SYS-3 FLR-5 SCH-H HPLCMT-CORE ZN,hourly; !- [J]
Output:Meter,InteriorLights:Electricity:Zone:SP-NURSESTN_LOBBY_FLR_4 SYS-3 FLR-5 SCH-H HPLCMT-CORE ZN,hourly; !- [J]
Output:Meter:Cumulative,InteriorLights:Electricity:Zone:SP-NURSESTN_LOBBY_FLR_4 SYS-3 FLR-5 SCH-H HPLCMT-CORE ZN,hourly; !- [J]
Output:Meter,Electricity:Zone:SP-NURSESTN_LOBBY_FLR_5 SYS-3 FLR-7 SCH-H HPLCMT-SOUTH ZN,hourly; !- [J]
Output:Meter:Cumulative,Electricity:Zone:SP-NURSESTN_LOBBY_FLR_5 SYS-3 FLR-7 SCH-H HPLCMT-SOUTH ZN,hourly; !- [J]
Output:Meter,InteriorLights:Electricity:Zone:SP-NURSESTN_LOBBY_FLR_5 SYS-3 FLR-7 SCH-H HPLCMT-SOUTH ZN,hourly; !- [J]
Output:Meter:Cumulative,InteriorLights:Electricity:Zone:SP-NURSESTN_LOBBY_FLR_5 SYS-3 FLR-7 SCH-H HPLCMT-SOUTH ZN,hourly; !- [J]
Output:Meter,Electricity:Zone:SP-OR_NURSESTN_LOBBY_FLR_2 SYS-3 FLR-3 SCH-H HPLCMT-SOUTH ZN,hourly; !- [J]
Output:Meter:Cumulative,Electricity:Zone:SP-OR_NURSESTN_LOBBY_FLR_2 SYS-3 FLR-3 SCH-H HPLCMT-SOUTH ZN,hourly; !- [J]
Output:Meter,InteriorLights:Electricity:Zone:SP-OR_NURSESTN_LOBBY_FLR_2 SYS-3 FLR-3 SCH-H HPLCMT-SOUTH ZN,hourly; !- [J]
Output:Meter:Cumulative,InteriorLights:Electricity:Zone:SP-OR_NURSESTN_LOBBY_FLR_2 SYS-3 FLR-3 SCH-H HPLCMT-SOUTH ZN,hourly; !- [J]
Output:Meter,Electricity:Zone:SP-ER_EXAM1_MULT4_FLR_1 SYS-3 FLR-2 SCH-H HPLCMT-SOUTH ZN,hourly; !- [J]
Output:Meter:Cumulative,Electricity:Zone:SP-ER_EXAM1_MULT4_FLR_1 SYS-3 FLR-2 SCH-H HPLCMT-SOUTH ZN,hourly; !- [J]
Output:Meter,InteriorLights:Electricity:Zone:SP-ER_EXAM1_MULT4_FLR_1 SYS-3 FLR-2 SCH-H HPLCMT-SOUTH ZN,hourly; !- [J]
Output:Meter:Cumulative,InteriorLights:Electricity:Zone:SP-ER_EXAM1_MULT4_FLR_1 SYS-3 FLR-2 SCH-H HPLCMT-SOUTH ZN,hourly; !- [J]
Output:Meter,Electricity:Zone:SP-ER_EXAM3_MULT4_FLR_1 SYS-3 FLR-2 SCH-H HPLCMT-EAST ZN,hourly; !- [J]
Output:Meter:Cumulative,Electricity:Zone:SP-ER_EXAM3_MULT4_FLR_1 SYS-3 FLR-2 SCH-H HPLCMT-EAST ZN,hourly; !- [J]
Output:Meter,InteriorLights:Electricity:Zone:SP-ER_EXAM3_MULT4_FLR_1 SYS-3 FLR-2 SCH-H HPLCMT-EAST ZN,hourly; !- [J]
Output:Meter:Cumulative,InteriorLights:Electricity:Zone:SP-ER_EXAM3_MULT4_FLR_1 SYS-3 FLR-2 SCH-H HPLCMT-EAST ZN,hourly; !- [J]
Output:Meter,Electricity:Zone:SP-ER_TRAUMA1_FLR_1 SYS-3 FLR-2 SCH-H HPLCMT-SOUTH ZN,hourly; !- [J]
Output:Meter:Cumulative,Electricity:Zone:SP-ER_TRAUMA1_FLR_1 SYS-3 FLR-2 SCH-H HPLCMT-SOUTH ZN,hourly; !- [J]
Output:Meter,InteriorLights:Electricity:Zone:SP-ER_TRAUMA1_FLR_1 SYS-3 FLR-2 SCH-H HPLCMT-SOUTH ZN,hourly; !- [J]
Output:Meter:Cumulative,InteriorLights:Electricity:Zone:SP-ER_TRAUMA1_FLR_1 SYS-3 FLR-2 SCH-H HPLCMT-SOUTH ZN,hourly; !- [J]
Output:Meter,Electricity:Zone:SP-ER_TRAUMA2_FLR_1 SYS-3 FLR-2 SCH-H HPLCMT-NORTH ZN,hourly; !- [J]
Output:Meter:Cumulative,Electricity:Zone:SP-ER_TRAUMA2_FLR_1 SYS-3 FLR-2 SCH-H HPLCMT-NORTH ZN,hourly; !- [J]
Output:Meter,InteriorLights:Electricity:Zone:SP-ER_TRAUMA2_FLR_1 SYS-3 FLR-2 SCH-H HPLCMT-NORTH ZN,hourly; !- [J]
Output:Meter:Cumulative,InteriorLights:Electricity:Zone:SP-ER_TRAUMA2_FLR_1 SYS-3 FLR-2 SCH-H HPLCMT-NORTH ZN,hourly; !- [J]
Output:Meter,Electricity:Zone:SP-ER_TRIAGE_MULT4_FLR_1 SYS-3 FLR-2 SCH-H HPLCMT-NORTH ZN,hourly; !- [J]
Output:Meter:Cumulative,Electricity:Zone:SP-ER_TRIAGE_MULT4_FLR_1 SYS-3 FLR-2 SCH-H HPLCMT-NORTH ZN,hourly; !- [J]
Output:Meter,InteriorLights:Electricity:Zone:SP-ER_TRIAGE_MULT4_FLR_1 SYS-3 FLR-2 SCH-H HPLCMT-NORTH ZN,hourly; !- [J]
Output:Meter:Cumulative,InteriorLights:Electricity:Zone:SP-ER_TRIAGE_MULT4_FLR_1 SYS-3 FLR-2 SCH-H HPLCMT-NORTH ZN,hourly; !- [J]
Output:Meter,Electricity:Zone:SP-OR1_FLR_2 SYS-3 FLR-3 SCH-H HPLCMT-NORTH ZN,hourly; !- [J]
Output:Meter:Cumulative,Electricity:Zone:SP-OR1_FLR_2 SYS-3 FLR-3 SCH-H HPLCMT-NORTH ZN,hourly; !- [J]
Output:Meter,InteriorLights:Electricity:Zone:SP-OR1_FLR_2 SYS-3 FLR-3 SCH-H HPLCMT-NORTH ZN,hourly; !- [J]
Output:Meter:Cumulative,InteriorLights:Electricity:Zone:SP-OR1_FLR_2 SYS-3 FLR-3 SCH-H HPLCMT-NORTH ZN,hourly; !- [J]
Output:Meter,Electricity:Zone:SP-OR2_MULT5_FLR_2 SYS-3 FLR-3 SCH-H HPLCMT-EAST ZN,hourly; !- [J]
Output:Meter:Cumulative,Electricity:Zone:SP-OR2_MULT5_FLR_2 SYS-3 FLR-3 SCH-H HPLCMT-EAST ZN,hourly; !- [J]
Output:Meter,InteriorLights:Electricity:Zone:SP-OR2_MULT5_FLR_2 SYS-3 FLR-3 SCH-H HPLCMT-EAST ZN,hourly; !- [J]
Output:Meter:Cumulative,InteriorLights:Electricity:Zone:SP-OR2_MULT5_FLR_2 SYS-3 FLR-3 SCH-H HPLCMT-EAST ZN,hourly; !- [J]
Output:Meter,Electricity:Zone:SP-OR3_FLR_2 SYS-3 FLR-3 SCH-H HPLCMT-NORTH ZN,hourly; !- [J]
Output:Meter:Cumulative,Electricity:Zone:SP-OR3_FLR_2 SYS-3 FLR-3 SCH-H HPLCMT-NORTH ZN,hourly; !- [J]
Output:Meter,InteriorLights:Electricity:Zone:SP-OR3_FLR_2 SYS-3 FLR-3 SCH-H HPLCMT-NORTH ZN,hourly; !- [J]
Output:Meter:Cumulative,InteriorLights:Electricity:Zone:SP-OR3_FLR_2 SYS-3 FLR-3 SCH-H HPLCMT-NORTH ZN,hourly; !- [J]
Output:Meter,Electricity:Zone:SP-OR4_FLR_2 SYS-3 FLR-3 SCH-H HPLCMT-CORE ZN,hourly; !- [J]
Output:Meter:Cumulative,Electricity:Zone:SP-OR4_FLR_2 SYS-3 FLR-3 SCH-H HPLCMT-CORE ZN,hourly; !- [J]
Output:Meter,InteriorLights:Electricity:Zone:SP-OR4_FLR_2 SYS-3 FLR-3 SCH-H HPLCMT-CORE ZN,hourly; !- [J]
Output:Meter:Cumulative,InteriorLights:Electricity:Zone:SP-OR4_FLR_2 SYS-3 FLR-3 SCH-H HPLCMT-CORE ZN,hourly; !- [J]
Output:Meter,Electricity:Zone:SP-IC_PATROOM1_MULT5_FLR_2 SYS-3 FLR-3 SCH-H HPLCMT-NORTH ZN,hourly; !- [J]
Output:Meter:Cumulative,Electricity:Zone:SP-IC_PATROOM1_MULT5_FLR_2 SYS-3 FLR-3 SCH-H HPLCMT-NORTH ZN,hourly; !- [J]
Output:Meter,InteriorLights:Electricity:Zone:SP-IC_PATROOM1_MULT5_FLR_2 SYS-3 FLR-3 SCH-H HPLCMT-NORTH ZN,hourly; !- [J]
Output:Meter:Cumulative,InteriorLights:Electricity:Zone:SP-IC_PATROOM1_MULT5_FLR_2 SYS-3 FLR-3 SCH-H HPLCMT-NORTH ZN,hourly; !- [J]
Output:Meter,Electricity:Zone:SP-IC_PATROOM2_FLR_2 SYS-3 FLR-3 SCH-H HPLCMT-NORTH ZN,hourly; !- [J]
Output:Meter:Cumulative,Electricity:Zone:SP-IC_PATROOM2_FLR_2 SYS-3 FLR-3 SCH-H HPLCMT-NORTH ZN,hourly; !- [J]
Output:Meter,InteriorLights:Electricity:Zone:SP-IC_PATROOM2_FLR_2 SYS-3 FLR-3 SCH-H HPLCMT-NORTH ZN,hourly; !- [J]
Output:Meter:Cumulative,InteriorLights:Electricity:Zone:SP-IC_PATROOM2_FLR_2 SYS-3 FLR-3 SCH-H HPLCMT-NORTH ZN,hourly; !- [J]
Output:Meter,Electricity:Zone:SP-IC_PATROOM3_MULT6_FLR_2 SYS-3 FLR-3 SCH-H HPLCMT-WEST ZN,hourly; !- [J]
Output:Meter:Cumulative,Electricity:Zone:SP-IC_PATROOM3_MULT6_FLR_2 SYS-3 FLR-3 SCH-H HPLCMT-WEST ZN,hourly; !- [J]
Output:Meter,InteriorLights:Electricity:Zone:SP-IC_PATROOM3_MULT6_FLR_2 SYS-3 FLR-3 SCH-H HPLCMT-WEST ZN,hourly; !- [J]
Output:Meter:Cumulative,InteriorLights:Electricity:Zone:SP-IC_PATROOM3_MULT6_FLR_2 SYS-3 FLR-3 SCH-H HPLCMT-WEST ZN,hourly; !- [J]
Output:Meter,Electricity:Zone:SP-PATROOM1_MULT10_FLR_3 SYS-3 FLR-4 SCH-H HPLCMT-SOUTH ZN,hourly; !- [J]
Output:Meter:Cumulative,Electricity:Zone:SP-PATROOM1_MULT10_FLR_3 SYS-3 FLR-4 SCH-H HPLCMT-SOUTH ZN,hourly; !- [J]
Output:Meter,InteriorLights:Electricity:Zone:SP-PATROOM1_MULT10_FLR_3 SYS-3 FLR-4 SCH-H HPLCMT-SOUTH ZN,hourly; !- [J]
Output:Meter:Cumulative,InteriorLights:Electricity:Zone:SP-PATROOM1_MULT10_FLR_3 SYS-3 FLR-4 SCH-H HPLCMT-SOUTH ZN,hourly; !- [J]
Output:Meter,Electricity:Zone:SP-PATROOM1_MULT10_FLR_4 SYS-3 FLR-5 SCH-H HPLCMT-SOUTH ZN,hourly; !- [J]
Output:Meter:Cumulative,Electricity:Zone:SP-PATROOM1_MULT10_FLR_4 SYS-3 FLR-5 SCH-H HPLCMT-SOUTH ZN,hourly; !- [J]
Output:Meter,InteriorLights:Electricity:Zone:SP-PATROOM1_MULT10_FLR_4 SYS-3 FLR-5 SCH-H HPLCMT-SOUTH ZN,hourly; !- [J]
Output:Meter:Cumulative,InteriorLights:Electricity:Zone:SP-PATROOM1_MULT10_FLR_4 SYS-3 FLR-5 SCH-H HPLCMT-SOUTH ZN,hourly; !- [J]
Output:Meter,Electricity:Zone:SP-PATROOM2_FLR_3 SYS-3 FLR-4 SCH-H HPLCMT-SOUTH ZN,hourly; !- [J]
Output:Meter:Cumulative,Electricity:Zone:SP-PATROOM2_FLR_3 SYS-3 FLR-4 SCH-H HPLCMT-SOUTH ZN,hourly; !- [J]
Output:Meter,InteriorLights:Electricity:Zone:SP-PATROOM2_FLR_3 SYS-3 FLR-4 SCH-H HPLCMT-SOUTH ZN,hourly; !- [J]
Output:Meter:Cumulative,InteriorLights:Electricity:Zone:SP-PATROOM2_FLR_3 SYS-3 FLR-4 SCH-H HPLCMT-SOUTH ZN,hourly; !- [J]
Output:Meter,Electricity:Zone:SP-PATROOM2_FLR_4 SYS-3 FLR-5 SCH-H HPLCMT-SOUTH ZN,hourly; !- [J]
Output:Meter:Cumulative,Electricity:Zone:SP-PATROOM2_FLR_4 SYS-3 FLR-5 SCH-H HPLCMT-SOUTH ZN,hourly; !- [J]
Output:Meter,InteriorLights:Electricity:Zone:SP-PATROOM2_FLR_4 SYS-3 FLR-5 SCH-H HPLCMT-SOUTH ZN,hourly; !- [J]
Output:Meter:Cumulative,InteriorLights:Electricity:Zone:SP-PATROOM2_FLR_4 SYS-3 FLR-5 SCH-H HPLCMT-SOUTH ZN,hourly; !- [J]
Output:Meter,Electricity:Zone:SP-PATROOM3_MULT10_FLR_3 SYS-3 FLR-4 SCH-H HPLCMT-EAST ZN,hourly; !- [J]
Output:Meter:Cumulative,Electricity:Zone:SP-PATROOM3_MULT10_FLR_3 SYS-3 FLR-4 SCH-H HPLCMT-EAST ZN,hourly; !- [J]
Output:Meter,InteriorLights:Electricity:Zone:SP-PATROOM3_MULT10_FLR_3 SYS-3 FLR-4 SCH-H HPLCMT-EAST ZN,hourly; !- [J]
Output:Meter:Cumulative,InteriorLights:Electricity:Zone:SP-PATROOM3_MULT10_FLR_3 SYS-3 FLR-4 SCH-H HPLCMT-EAST ZN,hourly; !- [J]
Output:Meter,Electricity:Zone:SP-PATROOM3_MULT10_FLR_4 SYS-3 FLR-5 SCH-H HPLCMT-EAST ZN,hourly; !- [J]
Output:Meter:Cumulative,Electricity:Zone:SP-PATROOM3_MULT10_FLR_4 SYS-3 FLR-5 SCH-H HPLCMT-EAST ZN,hourly; !- [J]
Output:Meter,InteriorLights:Electricity:Zone:SP-PATROOM3_MULT10_FLR_4 SYS-3 FLR-5 SCH-H HPLCMT-EAST ZN,hourly; !- [J]
Output:Meter:Cumulative,InteriorLights:Electricity:Zone:SP-PATROOM3_MULT10_FLR_4 SYS-3 FLR-5 SCH-H HPLCMT-EAST ZN,hourly; !- [J]
Output:Meter,Electricity:Zone:SP-PATROOM4_FLR_3 SYS-3 FLR-4 SCH-H HPLCMT-NORTH ZN,hourly; !- [J]
Output:Meter:Cumulative,Electricity:Zone:SP-PATROOM4_FLR_3 SYS-3 FLR-4 SCH-H HPLCMT-NORTH ZN,hourly; !- [J]
Output:Meter,InteriorLights:Electricity:Zone:SP-PATROOM4_FLR_3 SYS-3 FLR-4 SCH-H HPLCMT-NORTH ZN,hourly; !- [J]
Output:Meter:Cumulative,InteriorLights:Electricity:Zone:SP-PATROOM4_FLR_3 SYS-3 FLR-4 SCH-H HPLCMT-NORTH ZN,hourly; !- [J]
Output:Meter,Electricity:Zone:SP-PATROOM4_FLR_4 SYS-3 FLR-5 SCH-H HPLCMT-NORTH ZN,hourly; !- [J]
Output:Meter:Cumulative,Electricity:Zone:SP-PATROOM4_FLR_4 SYS-3 FLR-5 SCH-H HPLCMT-NORTH ZN,hourly; !- [J]
Output:Meter,InteriorLights:Electricity:Zone:SP-PATROOM4_FLR_4 SYS-3 FLR-5 SCH-H HPLCMT-NORTH ZN,hourly; !- [J]
Output:Meter:Cumulative,InteriorLights:Electricity:Zone:SP-PATROOM4_FLR_4 SYS-3 FLR-5 SCH-H HPLCMT-NORTH ZN,hourly; !- [J]
Output:Meter,Electricity:Zone:SP-PATROOM5_MULT10_FLR_3 SYS-3 FLR-4 SCH-H HPLCMT-NORTH ZN,hourly; !- [J]
Output:Meter:Cumulative,Electricity:Zone:SP-PATROOM5_MULT10_FLR_3 SYS-3 FLR-4 SCH-H HPLCMT-NORTH ZN,hourly; !- [J]
Output:Meter,InteriorLights:Electricity:Zone:SP-PATROOM5_MULT10_FLR_3 SYS-3 FLR-4 SCH-H HPLCMT-NORTH ZN,hourly; !- [J]
Output:Meter:Cumulative,InteriorLights:Electricity:Zone:SP-PATROOM5_MULT10_FLR_3 SYS-3 FLR-4 SCH-H HPLCMT-NORTH ZN,hourly; !- [J]
Output:Meter,Electricity:Zone:SP-PATROOM5_MULT10_FLR_4 SYS-3 FLR-5 SCH-H HPLCMT-NORTH ZN,hourly; !- [J]
Output:Meter:Cumulative,Electricity:Zone:SP-PATROOM5_MULT10_FLR_4 SYS-3 FLR-5 SCH-H HPLCMT-NORTH ZN,hourly; !- [J]
Output:Meter,InteriorLights:Electricity:Zone:SP-PATROOM5_MULT10_FLR_4 SYS-3 FLR-5 SCH-H HPLCMT-NORTH ZN,hourly; !- [J]
Output:Meter:Cumulative,InteriorLights:Electricity:Zone:SP-PATROOM5_MULT10_FLR_4 SYS-3 FLR-5 SCH-H HPLCMT-NORTH ZN,hourly; !- [J]
Output:Meter,Electricity:Zone:SP-PATROOM6_FLR_3 SYS-3 FLR-4 SCH-H HPLCMT-SOUTH ZN,hourly; !- [J]
Output:Meter:Cumulative,Electricity:Zone:SP-PATROOM6_FLR_3 SYS-3 FLR-4 SCH-H HPLCMT-SOUTH ZN,hourly; !- [J]
Output:Meter,InteriorLights:Electricity:Zone:SP-PATROOM6_FLR_3 SYS-3 FLR-4 SCH-H HPLCMT-SOUTH ZN,hourly; !- [J]
Output:Meter:Cumulative,InteriorLights:Electricity:Zone:SP-PATROOM6_FLR_3 SYS-3 FLR-4 SCH-H HPLCMT-SOUTH ZN,hourly; !- [J]
Output:Meter,Electricity:Zone:SP-PATROOM6_FLR_4 SYS-3 FLR-5 SCH-H HPLCMT-SOUTH ZN,hourly; !- [J]
Output:Meter:Cumulative,Electricity:Zone:SP-PATROOM6_FLR_4 SYS-3 FLR-5 SCH-H HPLCMT-SOUTH ZN,hourly; !- [J]
Output:Meter,InteriorLights:Electricity:Zone:SP-PATROOM6_FLR_4 SYS-3 FLR-5 SCH-H HPLCMT-SOUTH ZN,hourly; !- [J]
Output:Meter:Cumulative,InteriorLights:Electricity:Zone:SP-PATROOM6_FLR_4 SYS-3 FLR-5 SCH-H HPLCMT-SOUTH ZN,hourly; !- [J]
Output:Meter,Electricity:Zone:SP-PATROOM7_MULT10_FLR_3 SYS-3 FLR-4 SCH-H HPLCMT-WEST ZN,hourly; !- [J]
Output:Meter:Cumulative,Electricity:Zone:SP-PATROOM7_MULT10_FLR_3 SYS-3 FLR-4 SCH-H HPLCMT-WEST ZN,hourly; !- [J]
Output:Meter,InteriorLights:Electricity:Zone:SP-PATROOM7_MULT10_FLR_3 SYS-3 FLR-4 SCH-H HPLCMT-WEST ZN,hourly; !- [J]
Output:Meter:Cumulative,InteriorLights:Electricity:Zone:SP-PATROOM7_MULT10_FLR_3 SYS-3 FLR-4 SCH-H HPLCMT-WEST ZN,hourly; !- [J]
Output:Meter,Electricity:Zone:SP-PATROOM7_MULT10_FLR_4 SYS-3 FLR-5 SCH-H HPLCMT-WEST ZN,hourly; !- [J]
Output:Meter:Cumulative,Electricity:Zone:SP-PATROOM7_MULT10_FLR_4 SYS-3 FLR-5 SCH-H HPLCMT-WEST ZN,hourly; !- [J]
Output:Meter,InteriorLights:Electricity:Zone:SP-PATROOM7_MULT10_FLR_4 SYS-3 FLR-5 SCH-H HPLCMT-WEST ZN,hourly; !- [J]
Output:Meter:Cumulative,InteriorLights:Electricity:Zone:SP-PATROOM7_MULT10_FLR_4 SYS-3 FLR-5 SCH-H HPLCMT-WEST ZN,hourly; !- [J]
Output:Meter,Electricity:Zone:SP-PATROOM8_FLR_3 SYS-3 FLR-4 SCH-H HPLCMT-NORTH ZN,hourly; !- [J]
Output:Meter:Cumulative,Electricity:Zone:SP-PATROOM8_FLR_3 SYS-3 FLR-4 SCH-H HPLCMT-NORTH ZN,hourly; !- [J]
Output:Meter,InteriorLights:Electricity:Zone:SP-PATROOM8_FLR_3 SYS-3 FLR-4 SCH-H HPLCMT-NORTH ZN,hourly; !- [J]
Output:Meter:Cumulative,InteriorLights:Electricity:Zone:SP-PATROOM8_FLR_3 SYS-3 FLR-4 SCH-H HPLCMT-NORTH ZN,hourly; !- [J]
Output:Meter,Electricity:Zone:SP-PATROOM8_FLR_4 SYS-3 FLR-5 SCH-H HPLCMT-NORTH ZN,hourly; !- [J]
Output:Meter:Cumulative,Electricity:Zone:SP-PATROOM8_FLR_4 SYS-3 FLR-5 SCH-H HPLCMT-NORTH ZN,hourly; !- [J]
Output:Meter,InteriorLights:Electricity:Zone:SP-PATROOM8_FLR_4 SYS-3 FLR-5 SCH-H HPLCMT-NORTH ZN,hourly; !- [J]
Output:Meter:Cumulative,InteriorLights:Electricity:Zone:SP-PATROOM8_FLR_4 SYS-3 FLR-5 SCH-H HPLCMT-NORTH ZN,hourly; !- [J]
Output:Meter,Electricity:Zone:SP-PHYSTHERAPY_FLR_3 SYS-3 FLR-4 SCH-C HPLCMT-CORE ZN,hourly; !- [J]
Output:Meter:Cumulative,Electricity:Zone:SP-PHYSTHERAPY_FLR_3 SYS-3 FLR-4 SCH-C HPLCMT-CORE ZN,hourly; !- [J]
Output:Meter,InteriorLights:Electricity:Zone:SP-PHYSTHERAPY_FLR_3 SYS-3 FLR-4 SCH-C HPLCMT-CORE ZN,hourly; !- [J]
Output:Meter:Cumulative,InteriorLights:Electricity:Zone:SP-PHYSTHERAPY_FLR_3 SYS-3 FLR-4 SCH-C HPLCMT-CORE ZN,hourly; !- [J]
Output:Meter,Electricity:Zone:SP-ICU_FLR_2 SYS-3 FLR-3 SCH-H HPLCMT-SOUTH ZN,hourly; !- [J]
Output:Meter:Cumulative,Electricity:Zone:SP-ICU_FLR_2 SYS-3 FLR-3 SCH-H HPLCMT-SOUTH ZN,hourly; !- [J]
Output:Meter,InteriorLights:Electricity:Zone:SP-ICU_FLR_2 SYS-3 FLR-3 SCH-H HPLCMT-SOUTH ZN,hourly; !- [J]
Output:Meter:Cumulative,InteriorLights:Electricity:Zone:SP-ICU_FLR_2 SYS-3 FLR-3 SCH-H HPLCMT-SOUTH ZN,hourly; !- [J]
Output:Meter,Electricity:Zone:SP-BASEMENT SYS-3 FLR-1 SCH-A HPLCMT-NORTH ZN,hourly; !- [J]
Output:Meter:Cumulative,Electricity:Zone:SP-BASEMENT SYS-3 FLR-1 SCH-A HPLCMT-NORTH ZN,hourly; !- [J]
Output:Meter,InteriorLights:Electricity:Zone:SP-BASEMENT SYS-3 FLR-1 SCH-A HPLCMT-NORTH ZN,hourly; !- [J]
Output:Meter:Cumulative,InteriorLights:Electricity:Zone:SP-BASEMENT SYS-3 FLR-1 SCH-A HPLCMT-NORTH ZN,hourly; !- [J]
Output:Meter,Electricity:Zone:SP-LAB_FLR_3 SYS-3 FLR-4 SCH-A HPLCMT-CORE ZN,hourly; !- [J]
Output:Meter:Cumulative,Electricity:Zone:SP-LAB_FLR_3 SYS-3 FLR-4 SCH-A HPLCMT-CORE ZN,hourly; !- [J]
Output:Meter,InteriorLights:Electricity:Zone:SP-LAB_FLR_3 SYS-3 FLR-4 SCH-A HPLCMT-CORE ZN,hourly; !- [J]
Output:Meter:Cumulative,InteriorLights:Electricity:Zone:SP-LAB_FLR_3 SYS-3 FLR-4 SCH-A HPLCMT-CORE ZN,hourly; !- [J]
Output:Meter,Electricity:Zone:SP-LAB_FLR_4 SYS-3 FLR-5 SCH-A HPLCMT-CORE ZN,hourly; !- [J]
Output:Meter:Cumulative,Electricity:Zone:SP-LAB_FLR_4 SYS-3 FLR-5 SCH-A HPLCMT-CORE ZN,hourly; !- [J]
Output:Meter,InteriorLights:Electricity:Zone:SP-LAB_FLR_4 SYS-3 FLR-5 SCH-A HPLCMT-CORE ZN,hourly; !- [J]
Output:Meter:Cumulative,InteriorLights:Electricity:Zone:SP-LAB_FLR_4 SYS-3 FLR-5 SCH-A HPLCMT-CORE ZN,hourly; !- [J]
Output:Meter,Electricity:Zone:SP-LOBBY_RECORDS_FLR_1 SYS-6 FLR-2 SCH-A HPLCMT-WEST ZN,hourly; !- [J]
Output:Meter:Cumulative,Electricity:Zone:SP-LOBBY_RECORDS_FLR_1 SYS-6 FLR-2 SCH-A HPLCMT-WEST ZN,hourly; !- [J]
Output:Meter,InteriorLights:Electricity:Zone:SP-LOBBY_RECORDS_FLR_1 SYS-6 FLR-2 SCH-A HPLCMT-WEST ZN,hourly; !- [J]
Output:Meter:Cumulative,InteriorLights:Electricity:Zone:SP-LOBBY_RECORDS_FLR_1 SYS-6 FLR-2 SCH-A HPLCMT-WEST ZN,hourly; !- [J]
Output:Meter,Electricity:Zone:SP-OFFICE1_FLR_5 SYS-6 FLR-7 SCH-A HPLCMT-SOUTH ZN,hourly; !- [J]
Output:Meter:Cumulative,Electricity:Zone:SP-OFFICE1_FLR_5 SYS-6 FLR-7 SCH-A HPLCMT-SOUTH ZN,hourly; !- [J]
Output:Meter,InteriorLights:Electricity:Zone:SP-OFFICE1_FLR_5 SYS-6 FLR-7 SCH-A HPLCMT-SOUTH ZN,hourly; !- [J]
Output:Meter:Cumulative,InteriorLights:Electricity:Zone:SP-OFFICE1_FLR_5 SYS-6 FLR-7 SCH-A HPLCMT-SOUTH ZN,hourly; !- [J]
Output:Meter,Electricity:Zone:SP-OFFICE1_MULT4_FLR_1 SYS-6 FLR-2 SCH-A HPLCMT-SOUTH ZN,hourly; !- [J]
Output:Meter:Cumulative,Electricity:Zone:SP-OFFICE1_MULT4_FLR_1 SYS-6 FLR-2 SCH-A HPLCMT-SOUTH ZN,hourly; !- [J]
Output:Meter,InteriorLights:Electricity:Zone:SP-OFFICE1_MULT4_FLR_1 SYS-6 FLR-2 SCH-A HPLCMT-SOUTH ZN,hourly; !- [J]
Output:Meter:Cumulative,InteriorLights:Electricity:Zone:SP-OFFICE1_MULT4_FLR_1 SYS-6 FLR-2 SCH-A HPLCMT-SOUTH ZN,hourly; !- [J]
Output:Meter,Electricity:Zone:SP-OFFICE2_MULT5_FLR_5 SYS-6 FLR-7 SCH-A HPLCMT-WEST ZN,hourly; !- [J]
Output:Meter:Cumulative,Electricity:Zone:SP-OFFICE2_MULT5_FLR_5 SYS-6 FLR-7 SCH-A HPLCMT-WEST ZN,hourly; !- [J]
Output:Meter,InteriorLights:Electricity:Zone:SP-OFFICE2_MULT5_FLR_5 SYS-6 FLR-7 SCH-A HPLCMT-WEST ZN,hourly; !- [J]
Output:Meter:Cumulative,InteriorLights:Electricity:Zone:SP-OFFICE2_MULT5_FLR_5 SYS-6 FLR-7 SCH-A HPLCMT-WEST ZN,hourly; !- [J]
Output:Meter,Electricity:Zone:SP-OFFICE3_FLR_5 SYS-6 FLR-7 SCH-A HPLCMT-NORTH ZN,hourly; !- [J]
Output:Meter:Cumulative,Electricity:Zone:SP-OFFICE3_FLR_5 SYS-6 FLR-7 SCH-A HPLCMT-NORTH ZN,hourly; !- [J]
Output:Meter,InteriorLights:Electricity:Zone:SP-OFFICE3_FLR_5 SYS-6 FLR-7 SCH-A HPLCMT-NORTH ZN,hourly; !- [J]
Output:Meter:Cumulative,InteriorLights:Electricity:Zone:SP-OFFICE3_FLR_5 SYS-6 FLR-7 SCH-A HPLCMT-NORTH ZN,hourly; !- [J]
Output:Meter,Electricity:Zone:SP-OFFICE4_MULT6_FLR_5 SYS-6 FLR-7 SCH-A HPLCMT-NORTH ZN,hourly; !- [J]
Output:Meter:Cumulative,Electricity:Zone:SP-OFFICE4_MULT6_FLR_5 SYS-6 FLR-7 SCH-A HPLCMT-NORTH ZN,hourly; !- [J]
Output:Meter,InteriorLights:Electricity:Zone:SP-OFFICE4_MULT6_FLR_5 SYS-6 FLR-7 SCH-A HPLCMT-NORTH ZN,hourly; !- [J]
Output:Meter:Cumulative,InteriorLights:Electricity:Zone:SP-OFFICE4_MULT6_FLR_5 SYS-6 FLR-7 SCH-A HPLCMT-NORTH ZN,hourly; !- [J]
Output:Meter,InteriorEquipment:Electricity,hourly; !- [J]
Output:Meter:Cumulative,InteriorEquipment:Electricity,hourly; !- [J]
Output:Meter,InteriorEquipment:Electricity:Zone:SP-DINING_FLR_5 SYS-3 FLR-7 SCH-B HPLCMT-SOUTH ZN,hourly; !- [J]
Output:Meter:Cumulative,InteriorEquipment:Electricity:Zone:SP-DINING_FLR_5 SYS-3 FLR-7 SCH-B HPLCMT-SOUTH ZN,hourly; !- [J]
Output:Meter,General:InteriorEquipment:Electricity,hourly; !- [J]
Output:Meter:Cumulative,General:InteriorEquipment:Electricity,hourly; !- [J]
Output:Meter,InteriorEquipment:Electricity:Zone:SP-KITCHEN_FLR_5 SYS-3 FLR-7 SCH-B HPLCMT-NORTH ZN,hourly; !- [J]
Output:Meter:Cumulative,InteriorEquipment:Electricity:Zone:SP-KITCHEN_FLR_5 SYS-3 FLR-7 SCH-B HPLCMT-NORTH ZN,hourly; !- [J]
Output:Meter,InteriorEquipment:Electricity:Zone:SP-RADIOLOGY_FLR_4 SYS-3 FLR-5 SCH-H HPLCMT-CORE ZN,hourly; !- [J]
Output:Meter:Cumulative,InteriorEquipment:Electricity:Zone:SP-RADIOLOGY_FLR_4 SYS-3 FLR-5 SCH-H HPLCMT-CORE ZN,hourly; !- [J]
Output:Meter,InteriorEquipment:Electricity:Zone:SP-ER_NURSESTN_LOBBY_FLR_1 SYS-3 FLR-2 SCH-H HPLCMT-EAST ZN,hourly; !- [J]
Output:Meter:Cumulative,InteriorEquipment:Electricity:Zone:SP-ER_NURSESTN_LOBBY_FLR_1 SYS-3 FLR-2 SCH-H HPLCMT-EAST ZN,hourly; !- [J]
Output:Meter,InteriorEquipment:Electricity:Zone:SP-ICU_NURSESTN_LOBBY_FLR_2 SYS-3 FLR-3 SCH-H HPLCMT-CORE ZN,hourly; !- [J]
Output:Meter:Cumulative,InteriorEquipment:Electricity:Zone:SP-ICU_NURSESTN_LOBBY_FLR_2 SYS-3 FLR-3 SCH-H HPLCMT-CORE ZN,hourly; !- [J]
Output:Meter,InteriorEquipment:Electricity:Zone:SP-NURSESTN_LOBBY_FLR_3 SYS-3 FLR-4 SCH-H HPLCMT-CORE ZN,hourly; !- [J]
Output:Meter:Cumulative,InteriorEquipment:Electricity:Zone:SP-NURSESTN_LOBBY_FLR_3 SYS-3 FLR-4 SCH-H HPLCMT-CORE ZN,hourly; !- [J]
Output:Meter,InteriorEquipment:Electricity:Zone:SP-NURSESTN_LOBBY_FLR_4 SYS-3 FLR-5 SCH-H HPLCMT-CORE ZN,hourly; !- [J]
Output:Meter:Cumulative,InteriorEquipment:Electricity:Zone:SP-NURSESTN_LOBBY_FLR_4 SYS-3 FLR-5 SCH-H HPLCMT-CORE ZN,hourly; !- [J]
Output:Meter,InteriorEquipment:Electricity:Zone:SP-NURSESTN_LOBBY_FLR_5 SYS-3 FLR-7 SCH-H HPLCMT-SOUTH ZN,hourly; !- [J]
Output:Meter:Cumulative,InteriorEquipment:Electricity:Zone:SP-NURSESTN_LOBBY_FLR_5 SYS-3 FLR-7 SCH-H HPLCMT-SOUTH ZN,hourly; !- [J]
Output:Meter,InteriorEquipment:Electricity:Zone:SP-OR_NURSESTN_LOBBY_FLR_2 SYS-3 FLR-3 SCH-H HPLCMT-SOUTH ZN,hourly; !- [J]
Output:Meter:Cumulative,InteriorEquipment:Electricity:Zone:SP-OR_NURSESTN_LOBBY_FLR_2 SYS-3 FLR-3 SCH-H HPLCMT-SOUTH ZN,hourly; !- [J]
Output:Meter,InteriorEquipment:Electricity:Zone:SP-ER_EXAM1_MULT4_FLR_1 SYS-3 FLR-2 SCH-H HPLCMT-SOUTH ZN,hourly; !- [J]
Output:Meter:Cumulative,InteriorEquipment:Electricity:Zone:SP-ER_EXAM1_MULT4_FLR_1 SYS-3 FLR-2 SCH-H HPLCMT-SOUTH ZN,hourly; !- [J]
Output:Meter,InteriorEquipment:Electricity:Zone:SP-ER_EXAM3_MULT4_FLR_1 SYS-3 FLR-2 SCH-H HPLCMT-EAST ZN,hourly; !- [J]
Output:Meter:Cumulative,InteriorEquipment:Electricity:Zone:SP-ER_EXAM3_MULT4_FLR_1 SYS-3 FLR-2 SCH-H HPLCMT-EAST ZN,hourly; !- [J]
Output:Meter,InteriorEquipment:Electricity:Zone:SP-ER_TRAUMA1_FLR_1 SYS-3 FLR-2 SCH-H HPLCMT-SOUTH ZN,hourly; !- [J]
Output:Meter:Cumulative,InteriorEquipment:Electricity:Zone:SP-ER_TRAUMA1_FLR_1 SYS-3 FLR-2 SCH-H HPLCMT-SOUTH ZN,hourly; !- [J]
Output:Meter,InteriorEquipment:Electricity:Zone:SP-ER_TRAUMA2_FLR_1 SYS-3 FLR-2 SCH-H HPLCMT-NORTH ZN,hourly; !- [J]
Output:Meter:Cumulative,InteriorEquipment:Electricity:Zone:SP-ER_TRAUMA2_FLR_1 SYS-3 FLR-2 SCH-H HPLCMT-NORTH ZN,hourly; !- [J]
Output:Meter,InteriorEquipment:Electricity:Zone:SP-ER_TRIAGE_MULT4_FLR_1 SYS-3 FLR-2 SCH-H HPLCMT-NORTH ZN,hourly; !- [J]
Output:Meter:Cumulative,InteriorEquipment:Electricity:Zone:SP-ER_TRIAGE_MULT4_FLR_1 SYS-3 FLR-2 SCH-H HPLCMT-NORTH ZN,hourly; !- [J]
Output:Meter,InteriorEquipment:Electricity:Zone:SP-OR1_FLR_2 SYS-3 FLR-3 SCH-H HPLCMT-NORTH ZN,hourly; !- [J]
Output:Meter:Cumulative,InteriorEquipment:Electricity:Zone:SP-OR1_FLR_2 SYS-3 FLR-3 SCH-H HPLCMT-NORTH ZN,hourly; !- [J]
Output:Meter,InteriorEquipment:Electricity:Zone:SP-OR2_MULT5_FLR_2 SYS-3 FLR-3 SCH-H HPLCMT-EAST ZN,hourly; !- [J]
Output:Meter:Cumulative,InteriorEquipment:Electricity:Zone:SP-OR2_MULT5_FLR_2 SYS-3 FLR-3 SCH-H HPLCMT-EAST ZN,hourly; !- [J]
Output:Meter,InteriorEquipment:Electricity:Zone:SP-OR3_FLR_2 SYS-3 FLR-3 SCH-H HPLCMT-NORTH ZN,hourly; !- [J]
Output:Meter:Cumulative,InteriorEquipment:Electricity:Zone:SP-OR3_FLR_2 SYS-3 FLR-3 SCH-H HPLCMT-NORTH ZN,hourly; !- [J]
Output:Meter,InteriorEquipment:Electricity:Zone:SP-OR4_FLR_2 SYS-3 FLR-3 SCH-H HPLCMT-CORE ZN,hourly; !- [J]
Output:Meter:Cumulative,InteriorEquipment:Electricity:Zone:SP-OR4_FLR_2 SYS-3 FLR-3 SCH-H HPLCMT-CORE ZN,hourly; !- [J]
Output:Meter,InteriorEquipment:Electricity:Zone:SP-IC_PATROOM1_MULT5_FLR_2 SYS-3 FLR-3 SCH-H HPLCMT-NORTH ZN,hourly; !- [J]
Output:Meter:Cumulative,InteriorEquipment:Electricity:Zone:SP-IC_PATROOM1_MULT5_FLR_2 SYS-3 FLR-3 SCH-H HPLCMT-NORTH ZN,hourly; !- [J]
Output:Meter,InteriorEquipment:Electricity:Zone:SP-IC_PATROOM2_FLR_2 SYS-3 FLR-3 SCH-H HPLCMT-NORTH ZN,hourly; !- [J]
Output:Meter:Cumulative,InteriorEquipment:Electricity:Zone:SP-IC_PATROOM2_FLR_2 SYS-3 FLR-3 SCH-H HPLCMT-NORTH ZN,hourly; !- [J]
Output:Meter,InteriorEquipment:Electricity:Zone:SP-IC_PATROOM3_MULT6_FLR_2 SYS-3 FLR-3 SCH-H HPLCMT-WEST ZN,hourly; !- [J]
Output:Meter:Cumulative,InteriorEquipment:Electricity:Zone:SP-IC_PATROOM3_MULT6_FLR_2 SYS-3 FLR-3 SCH-H HPLCMT-WEST ZN,hourly; !- [J]
Output:Meter,InteriorEquipment:Electricity:Zone:SP-PATROOM1_MULT10_FLR_3 SYS-3 FLR-4 SCH-H HPLCMT-SOUTH ZN,hourly; !- [J]
Output:Meter:Cumulative,InteriorEquipment:Electricity:Zone:SP-PATROOM1_MULT10_FLR_3 SYS-3 FLR-4 SCH-H HPLCMT-SOUTH ZN,hourly; !- [J]
Output:Meter,InteriorEquipment:Electricity:Zone:SP-PATROOM1_MULT10_FLR_4 SYS-3 FLR-5 SCH-H HPLCMT-SOUTH ZN,hourly; !- [J]
Output:Meter:Cumulative,InteriorEquipment:Electricity:Zone:SP-PATROOM1_MULT10_FLR_4 SYS-3 FLR-5 SCH-H HPLCMT-SOUTH ZN,hourly; !- [J]
Output:Meter,InteriorEquipment:Electricity:Zone:SP-PATROOM2_FLR_3 SYS-3 FLR-4 SCH-H HPLCMT-SOUTH ZN,hourly; !- [J]
Output:Meter:Cumulative,InteriorEquipment:Electricity:Zone:SP-PATROOM2_FLR_3 SYS-3 FLR-4 SCH-H HPLCMT-SOUTH ZN,hourly; !- [J]
Output:Meter,InteriorEquipment:Electricity:Zone:SP-PATROOM2_FLR_4 SYS-3 FLR-5 SCH-H HPLCMT-SOUTH ZN,hourly; !- [J]
Output:Meter:Cumulative,InteriorEquipment:Electricity:Zone:SP-PATROOM2_FLR_4 SYS-3 FLR-5 SCH-H HPLCMT-SOUTH ZN,hourly; !- [J]
Output:Meter,InteriorEquipment:Electricity:Zone:SP-PATROOM3_MULT10_FLR_3 SYS-3 FLR-4 SCH-H HPLCMT-EAST ZN,hourly; !- [J]
Output:Meter:Cumulative,InteriorEquipment:Electricity:Zone:SP-PATROOM3_MULT10_FLR_3 SYS-3 FLR-4 SCH-H HPLCMT-EAST ZN,hourly; !- [J]
Output:Meter,InteriorEquipment:Electricity:Zone:SP-PATROOM3_MULT10_FLR_4 SYS-3 FLR-5 SCH-H HPLCMT-EAST ZN,hourly; !- [J]
Output:Meter:Cumulative,InteriorEquipment:Electricity:Zone:SP-PATROOM3_MULT10_FLR_4 SYS-3 FLR-5 SCH-H HPLCMT-EAST ZN,hourly; !- [J]
Output:Meter,InteriorEquipment:Electricity:Zone:SP-PATROOM4_FLR_3 SYS-3 FLR-4 SCH-H HPLCMT-NORTH ZN,hourly; !- [J]
Output:Meter:Cumulative,InteriorEquipment:Electricity:Zone:SP-PATROOM4_FLR_3 SYS-3 FLR-4 SCH-H HPLCMT-NORTH ZN,hourly; !- [J]
Output:Meter,InteriorEquipment:Electricity:Zone:SP-PATROOM4_FLR_4 SYS-3 FLR-5 SCH-H HPLCMT-NORTH ZN,hourly; !- [J]
Output:Meter:Cumulative,InteriorEquipment:Electricity:Zone:SP-PATROOM4_FLR_4 SYS-3 FLR-5 SCH-H HPLCMT-NORTH ZN,hourly; !- [J]
Output:Meter,InteriorEquipment:Electricity:Zone:SP-PATROOM5_MULT10_FLR_3 SYS-3 FLR-4 SCH-H HPLCMT-NORTH ZN,hourly; !- [J]
Output:Meter:Cumulative,InteriorEquipment:Electricity:Zone:SP-PATROOM5_MULT10_FLR_3 SYS-3 FLR-4 SCH-H HPLCMT-NORTH ZN,hourly; !- [J]
Output:Meter,InteriorEquipment:Electricity:Zone:SP-PATROOM5_MULT10_FLR_4 SYS-3 FLR-5 SCH-H HPLCMT-NORTH ZN,hourly; !- [J]
Output:Meter:Cumulative,InteriorEquipment:Electricity:Zone:SP-PATROOM5_MULT10_FLR_4 SYS-3 FLR-5 SCH-H HPLCMT-NORTH ZN,hourly; !- [J]
Output:Meter,InteriorEquipment:Electricity:Zone:SP-PATROOM6_FLR_3 SYS-3 FLR-4 SCH-H HPLCMT-SOUTH ZN,hourly; !- [J]
Output:Meter:Cumulative,InteriorEquipment:Electricity:Zone:SP-PATROOM6_FLR_3 SYS-3 FLR-4 SCH-H HPLCMT-SOUTH ZN,hourly; !- [J]
Output:Meter,InteriorEquipment:Electricity:Zone:SP-PATROOM6_FLR_4 SYS-3 FLR-5 SCH-H HPLCMT-SOUTH ZN,hourly; !- [J]
Output:Meter:Cumulative,InteriorEquipment:Electricity:Zone:SP-PATROOM6_FLR_4 SYS-3 FLR-5 SCH-H HPLCMT-SOUTH ZN,hourly; !- [J]
Output:Meter,InteriorEquipment:Electricity:Zone:SP-PATROOM7_MULT10_FLR_3 SYS-3 FLR-4 SCH-H HPLCMT-WEST ZN,hourly; !- [J]
Output:Meter:Cumulative,InteriorEquipment:Electricity:Zone:SP-PATROOM7_MULT10_FLR_3 SYS-3 FLR-4 SCH-H HPLCMT-WEST ZN,hourly; !- [J]
Output:Meter,InteriorEquipment:Electricity:Zone:SP-PATROOM7_MULT10_FLR_4 SYS-3 FLR-5 SCH-H HPLCMT-WEST ZN,hourly; !- [J]
Output:Meter:Cumulative,InteriorEquipment:Electricity:Zone:SP-PATROOM7_MULT10_FLR_4 SYS-3 FLR-5 SCH-H HPLCMT-WEST ZN,hourly; !- [J]
Output:Meter,InteriorEquipment:Electricity:Zone:SP-PATROOM8_FLR_3 SYS-3 FLR-4 SCH-H HPLCMT-NORTH ZN,hourly; !- [J]
Output:Meter:Cumulative,InteriorEquipment:Electricity:Zone:SP-PATROOM8_FLR_3 SYS-3 FLR-4 SCH-H HPLCMT-NORTH ZN,hourly; !- [J]
Output:Meter,InteriorEquipment:Electricity:Zone:SP-PATROOM8_FLR_4 SYS-3 FLR-5 SCH-H HPLCMT-NORTH ZN,hourly; !- [J]
Output:Meter:Cumulative,InteriorEquipment:Electricity:Zone:SP-PATROOM8_FLR_4 SYS-3 FLR-5 SCH-H HPLCMT-NORTH ZN,hourly; !- [J]
Output:Meter,InteriorEquipment:Electricity:Zone:SP-PHYSTHERAPY_FLR_3 SYS-3 FLR-4 SCH-C HPLCMT-CORE ZN,hourly; !- [J]
Output:Meter:Cumulative,InteriorEquipment:Electricity:Zone:SP-PHYSTHERAPY_FLR_3 SYS-3 FLR-4 SCH-C HPLCMT-CORE ZN,hourly; !- [J]
Output:Meter,InteriorEquipment:Electricity:Zone:SP-ICU_FLR_2 SYS-3 FLR-3 SCH-H HPLCMT-SOUTH ZN,hourly; !- [J]
Output:Meter:Cumulative,InteriorEquipment:Electricity:Zone:SP-ICU_FLR_2 SYS-3 FLR-3 SCH-H HPLCMT-SOUTH ZN,hourly; !- [J]
Output:Meter,InteriorEquipment:Electricity:Zone:SP-BASEMENT SYS-3 FLR-1 SCH-A HPLCMT-NORTH ZN,hourly; !- [J]
Output:Meter:Cumulative,InteriorEquipment:Electricity:Zone:SP-BASEMENT SYS-3 FLR-1 SCH-A HPLCMT-NORTH ZN,hourly; !- [J]
Output:Meter,InteriorEquipment:Electricity:Zone:SP-LAB_FLR_3 SYS-3 FLR-4 SCH-A HPLCMT-CORE ZN,hourly; !- [J]
Output:Meter:Cumulative,InteriorEquipment:Electricity:Zone:SP-LAB_FLR_3 SYS-3 FLR-4 SCH-A HPLCMT-CORE ZN,hourly; !- [J]
Output:Meter,InteriorEquipment:Electricity:Zone:SP-LAB_FLR_4 SYS-3 FLR-5 SCH-A HPLCMT-CORE ZN,hourly; !- [J]
Output:Meter:Cumulative,InteriorEquipment:Electricity:Zone:SP-LAB_FLR_4 SYS-3 FLR-5 SCH-A HPLCMT-CORE ZN,hourly; !- [J]
Output:Meter,InteriorEquipment:Electricity:Zone:SP-LOBBY_RECORDS_FLR_1 SYS-6 FLR-2 SCH-A HPLCMT-WEST ZN,hourly; !- [J]
Output:Meter:Cumulative,InteriorEquipment:Electricity:Zone:SP-LOBBY_RECORDS_FLR_1 SYS-6 FLR-2 SCH-A HPLCMT-WEST ZN,hourly; !- [J]
Output:Meter,InteriorEquipment:Electricity:Zone:SP-OFFICE1_FLR_5 SYS-6 FLR-7 SCH-A HPLCMT-SOUTH ZN,hourly; !- [J]
Output:Meter:Cumulative,InteriorEquipment:Electricity:Zone:SP-OFFICE1_FLR_5 SYS-6 FLR-7 SCH-A HPLCMT-SOUTH ZN,hourly; !- [J]
Output:Meter,InteriorEquipment:Electricity:Zone:SP-OFFICE1_MULT4_FLR_1 SYS-6 FLR-2 SCH-A HPLCMT-SOUTH ZN,hourly; !- [J]
Output:Meter:Cumulative,InteriorEquipment:Electricity:Zone:SP-OFFICE1_MULT4_FLR_1 SYS-6 FLR-2 SCH-A HPLCMT-SOUTH ZN,hourly; !- [J]
Output:Meter,InteriorEquipment:Electricity:Zone:SP-OFFICE2_MULT5_FLR_5 SYS-6 FLR-7 SCH-A HPLCMT-WEST ZN,hourly; !- [J]
Output:Meter:Cumulative,InteriorEquipment:Electricity:Zone:SP-OFFICE2_MULT5_FLR_5 SYS-6 FLR-7 SCH-A HPLCMT-WEST ZN,hourly; !- [J]
Output:Meter,InteriorEquipment:Electricity:Zone:SP-OFFICE3_FLR_5 SYS-6 FLR-7 SCH-A HPLCMT-NORTH ZN,hourly; !- [J]
Output:Meter:Cumulative,InteriorEquipment:Electricity:Zone:SP-OFFICE3_FLR_5 SYS-6 FLR-7 SCH-A HPLCMT-NORTH ZN,hourly; !- [J]
Output:Meter,InteriorEquipment:Electricity:Zone:SP-OFFICE4_MULT6_FLR_5 SYS-6 FLR-7 SCH-A HPLCMT-NORTH ZN,hourly; !- [J]
Output:Meter:Cumulative,InteriorEquipment:Electricity:Zone:SP-OFFICE4_MULT6_FLR_5 SYS-6 FLR-7 SCH-A HPLCMT-NORTH ZN,hourly; !- [J]
Output:Meter,PlantLoopHeatingDemand:Facility,hourly; !- [J]
Output:Meter:Cumulative,PlantLoopHeatingDemand:Facility,hourly; !- [J]
Output:Meter,PlantLoopHeatingDemand:Plant,hourly; !- [J]
Output:Meter:Cumulative,PlantLoopHeatingDemand:Plant,hourly; !- [J]
Output:Meter,WaterSystems:PlantLoopHeatingDemand,hourly; !- [J]
Output:Meter:Cumulative,WaterSystems:PlantLoopHeatingDemand,hourly; !- [J]
Output:Meter,General:WaterSystems:PlantLoopHeatingDemand,hourly; !- [J]
Output:Meter:Cumulative,General:WaterSystems:PlantLoopHeatingDemand,hourly; !- [J]
Output:Meter,Gas:Facility,hourly; !- [J]
Output:Meter:Cumulative,Gas:Facility,hourly; !- [J]
Output:Meter,Gas:Plant,hourly; !- [J]
Output:Meter:Cumulative,Gas:Plant,hourly; !- [J]
Output:Meter,WaterSystems:Gas,hourly; !- [J]
Output:Meter:Cumulative,WaterSystems:Gas,hourly; !- [J]
Output:Meter,General:WaterSystems:Gas,hourly; !- [J]
Output:Meter:Cumulative,General:WaterSystems:Gas,hourly; !- [J]
Output:Meter,Water:Facility,hourly; !- [m3]
Output:Meter:Cumulative,Water:Facility,hourly; !- [m3]
Output:Meter,Water:Plant,hourly; !- [m3]
Output:Meter:Cumulative,Water:Plant,hourly; !- [m3]
Output:Meter,WaterSystems:Water,hourly; !- [m3]
Output:Meter:Cumulative,WaterSystems:Water,hourly; !- [m3]
Output:Meter,General:WaterSystems:Water,hourly; !- [m3]
Output:Meter:Cumulative,General:WaterSystems:Water,hourly; !- [m3]
Output:Meter,MainsWater:Facility,hourly; !- [m3]
Output:Meter:Cumulative,MainsWater:Facility,hourly; !- [m3]
Output:Meter,MainsWater:Plant,hourly; !- [m3]
Output:Meter:Cumulative,MainsWater:Plant,hourly; !- [m3]
Output:Meter,WaterSystems:MainsWater,hourly; !- [m3]
Output:Meter:Cumulative,WaterSystems:MainsWater,hourly; !- [m3]
Output:Meter,General:WaterSystems:MainsWater,hourly; !- [m3]
Output:Meter:Cumulative,General:WaterSystems:MainsWater,hourly; !- [m3]
Output:Meter,EnergyTransfer:Facility,hourly; !- [J]
Output:Meter:Cumulative,EnergyTransfer:Facility,hourly; !- [J]
Output:Meter,EnergyTransfer:Building,hourly; !- [J]
Output:Meter:Cumulative,EnergyTransfer:Building,hourly; !- [J]
Output:Meter,EnergyTransfer:Zone:SP-BASEMENT SYS-3 FLR-1 SCH-A HPLCMT-NORTH ZN,hourly; !- [J]
Output:Meter:Cumulative,EnergyTransfer:Zone:SP-BASEMENT SYS-3 FLR-1 SCH-A HPLCMT-NORTH ZN,hourly; !- [J]
Output:Meter,Heating:EnergyTransfer,hourly; !- [J]
Output:Meter:Cumulative,Heating:EnergyTransfer,hourly; !- [J]
Output:Meter,Heating:EnergyTransfer:Zone:SP-BASEMENT SYS-3 FLR-1 SCH-A HPLCMT-NORTH ZN,hourly; !- [J]
Output:Meter:Cumulative,Heating:EnergyTransfer:Zone:SP-BASEMENT SYS-3 FLR-1 SCH-A HPLCMT-NORTH ZN,hourly; !- [J]
Output:Meter,Cooling:EnergyTransfer,hourly; !- [J]
Output:Meter:Cumulative,Cooling:EnergyTransfer,hourly; !- [J]
Output:Meter,Cooling:EnergyTransfer:Zone:SP-BASEMENT SYS-3 FLR-1 SCH-A HPLCMT-NORTH ZN,hourly; !- [J]
Output:Meter:Cumulative,Cooling:EnergyTransfer:Zone:SP-BASEMENT SYS-3 FLR-1 SCH-A HPLCMT-NORTH ZN,hourly; !- [J]
Output:Meter,EnergyTransfer:Zone:SP-CORRIDOR_FLR_1 SYS-3 FLR-2 SCH-B HPLCMT-NORTH ZN,hourly; !- [J]
Output:Meter:Cumulative,EnergyTransfer:Zone:SP-CORRIDOR_FLR_1 SYS-3 FLR-2 SCH-B HPLCMT-NORTH ZN,hourly; !- [J]
Output:Meter,Heating:EnergyTransfer:Zone:SP-CORRIDOR_FLR_1 SYS-3 FLR-2 SCH-B HPLCMT-NORTH ZN,hourly; !- [J]
Output:Meter:Cumulative,Heating:EnergyTransfer:Zone:SP-CORRIDOR_FLR_1 SYS-3 FLR-2 SCH-B HPLCMT-NORTH ZN,hourly; !- [J]
Output:Meter,Cooling:EnergyTransfer:Zone:SP-CORRIDOR_FLR_1 SYS-3 FLR-2 SCH-B HPLCMT-NORTH ZN,hourly; !- [J]
Output:Meter:Cumulative,Cooling:EnergyTransfer:Zone:SP-CORRIDOR_FLR_1 SYS-3 FLR-2 SCH-B HPLCMT-NORTH ZN,hourly; !- [J]
Output:Meter,EnergyTransfer:Zone:SP-CORRIDOR_FLR_2 SYS-3 FLR-3 SCH-B HPLCMT-NORTH ZN,hourly; !- [J]
Output:Meter:Cumulative,EnergyTransfer:Zone:SP-CORRIDOR_FLR_2 SYS-3 FLR-3 SCH-B HPLCMT-NORTH ZN,hourly; !- [J]
Output:Meter,Heating:EnergyTransfer:Zone:SP-CORRIDOR_FLR_2 SYS-3 FLR-3 SCH-B HPLCMT-NORTH ZN,hourly; !- [J]
Output:Meter:Cumulative,Heating:EnergyTransfer:Zone:SP-CORRIDOR_FLR_2 SYS-3 FLR-3 SCH-B HPLCMT-NORTH ZN,hourly; !- [J]
Output:Meter,Cooling:EnergyTransfer:Zone:SP-CORRIDOR_FLR_2 SYS-3 FLR-3 SCH-B HPLCMT-NORTH ZN,hourly; !- [J]
Output:Meter:Cumulative,Cooling:EnergyTransfer:Zone:SP-CORRIDOR_FLR_2 SYS-3 FLR-3 SCH-B HPLCMT-NORTH ZN,hourly; !- [J]
Output:Meter,EnergyTransfer:Zone:SP-CORRIDOR_FLR_5 SYS-3 FLR-7 SCH-B HPLCMT-NORTH ZN,hourly; !- [J]
Output:Meter:Cumulative,EnergyTransfer:Zone:SP-CORRIDOR_FLR_5 SYS-3 FLR-7 SCH-B HPLCMT-NORTH ZN,hourly; !- [J]
Output:Meter,Heating:EnergyTransfer:Zone:SP-CORRIDOR_FLR_5 SYS-3 FLR-7 SCH-B HPLCMT-NORTH ZN,hourly; !- [J]
Output:Meter:Cumulative,Heating:EnergyTransfer:Zone:SP-CORRIDOR_FLR_5 SYS-3 FLR-7 SCH-B HPLCMT-NORTH ZN,hourly; !- [J]
Output:Meter,Cooling:EnergyTransfer:Zone:SP-CORRIDOR_FLR_5 SYS-3 FLR-7 SCH-B HPLCMT-NORTH ZN,hourly; !- [J]
Output:Meter:Cumulative,Cooling:EnergyTransfer:Zone:SP-CORRIDOR_FLR_5 SYS-3 FLR-7 SCH-B HPLCMT-NORTH ZN,hourly; !- [J]
Output:Meter,EnergyTransfer:Zone:SP-CORRIDOR_NW_FLR_3 SYS-3 FLR-4 SCH-B HPLCMT-NORTH ZN,hourly; !- [J]
Output:Meter:Cumulative,EnergyTransfer:Zone:SP-CORRIDOR_NW_FLR_3 SYS-3 FLR-4 SCH-B HPLCMT-NORTH ZN,hourly; !- [J]
Output:Meter,Heating:EnergyTransfer:Zone:SP-CORRIDOR_NW_FLR_3 SYS-3 FLR-4 SCH-B HPLCMT-NORTH ZN,hourly; !- [J]
Output:Meter:Cumulative,Heating:EnergyTransfer:Zone:SP-CORRIDOR_NW_FLR_3 SYS-3 FLR-4 SCH-B HPLCMT-NORTH ZN,hourly; !- [J]
Output:Meter,Cooling:EnergyTransfer:Zone:SP-CORRIDOR_NW_FLR_3 SYS-3 FLR-4 SCH-B HPLCMT-NORTH ZN,hourly; !- [J]
Output:Meter:Cumulative,Cooling:EnergyTransfer:Zone:SP-CORRIDOR_NW_FLR_3 SYS-3 FLR-4 SCH-B HPLCMT-NORTH ZN,hourly; !- [J]
Output:Meter,EnergyTransfer:Zone:SP-CORRIDOR_NW_FLR_4 SYS-3 FLR-5 SCH-B HPLCMT-NORTH ZN,hourly; !- [J]
Output:Meter:Cumulative,EnergyTransfer:Zone:SP-CORRIDOR_NW_FLR_4 SYS-3 FLR-5 SCH-B HPLCMT-NORTH ZN,hourly; !- [J]
Output:Meter,Heating:EnergyTransfer:Zone:SP-CORRIDOR_NW_FLR_4 SYS-3 FLR-5 SCH-B HPLCMT-NORTH ZN,hourly; !- [J]
Output:Meter:Cumulative,Heating:EnergyTransfer:Zone:SP-CORRIDOR_NW_FLR_4 SYS-3 FLR-5 SCH-B HPLCMT-NORTH ZN,hourly; !- [J]
Output:Meter,Cooling:EnergyTransfer:Zone:SP-CORRIDOR_NW_FLR_4 SYS-3 FLR-5 SCH-B HPLCMT-NORTH ZN,hourly; !- [J]
Output:Meter:Cumulative,Cooling:EnergyTransfer:Zone:SP-CORRIDOR_NW_FLR_4 SYS-3 FLR-5 SCH-B HPLCMT-NORTH ZN,hourly; !- [J]
Output:Meter,EnergyTransfer:Zone:SP-CORRIDOR_SE_FLR_3 SYS-3 FLR-4 SCH-B HPLCMT-SOUTH ZN,hourly; !- [J]
Output:Meter:Cumulative,EnergyTransfer:Zone:SP-CORRIDOR_SE_FLR_3 SYS-3 FLR-4 SCH-B HPLCMT-SOUTH ZN,hourly; !- [J]
Output:Meter,Heating:EnergyTransfer:Zone:SP-CORRIDOR_SE_FLR_3 SYS-3 FLR-4 SCH-B HPLCMT-SOUTH ZN,hourly; !- [J]
Output:Meter:Cumulative,Heating:EnergyTransfer:Zone:SP-CORRIDOR_SE_FLR_3 SYS-3 FLR-4 SCH-B HPLCMT-SOUTH ZN,hourly; !- [J]
Output:Meter,Cooling:EnergyTransfer:Zone:SP-CORRIDOR_SE_FLR_3 SYS-3 FLR-4 SCH-B HPLCMT-SOUTH ZN,hourly; !- [J]
Output:Meter:Cumulative,Cooling:EnergyTransfer:Zone:SP-CORRIDOR_SE_FLR_3 SYS-3 FLR-4 SCH-B HPLCMT-SOUTH ZN,hourly; !- [J]
Output:Meter,EnergyTransfer:Zone:SP-CORRIDOR_SE_FLR_4 SYS-3 FLR-5 SCH-B HPLCMT-SOUTH ZN,hourly; !- [J]
Output:Meter:Cumulative,EnergyTransfer:Zone:SP-CORRIDOR_SE_FLR_4 SYS-3 FLR-5 SCH-B HPLCMT-SOUTH ZN,hourly; !- [J]
Output:Meter,Heating:EnergyTransfer:Zone:SP-CORRIDOR_SE_FLR_4 SYS-3 FLR-5 SCH-B HPLCMT-SOUTH ZN,hourly; !- [J]
Output:Meter:Cumulative,Heating:EnergyTransfer:Zone:SP-CORRIDOR_SE_FLR_4 SYS-3 FLR-5 SCH-B HPLCMT-SOUTH ZN,hourly; !- [J]
Output:Meter,Cooling:EnergyTransfer:Zone:SP-CORRIDOR_SE_FLR_4 SYS-3 FLR-5 SCH-B HPLCMT-SOUTH ZN,hourly; !- [J]
Output:Meter:Cumulative,Cooling:EnergyTransfer:Zone:SP-CORRIDOR_SE_FLR_4 SYS-3 FLR-5 SCH-B HPLCMT-SOUTH ZN,hourly; !- [J]
Output:Meter,EnergyTransfer:Zone:SP-DINING_FLR_5 SYS-3 FLR-7 SCH-B HPLCMT-SOUTH ZN,hourly; !- [J]
Output:Meter:Cumulative,EnergyTransfer:Zone:SP-DINING_FLR_5 SYS-3 FLR-7 SCH-B HPLCMT-SOUTH ZN,hourly; !- [J]
Output:Meter,Heating:EnergyTransfer:Zone:SP-DINING_FLR_5 SYS-3 FLR-7 SCH-B HPLCMT-SOUTH ZN,hourly; !- [J]
Output:Meter:Cumulative,Heating:EnergyTransfer:Zone:SP-DINING_FLR_5 SYS-3 FLR-7 SCH-B HPLCMT-SOUTH ZN,hourly; !- [J]
Output:Meter,Cooling:EnergyTransfer:Zone:SP-DINING_FLR_5 SYS-3 FLR-7 SCH-B HPLCMT-SOUTH ZN,hourly; !- [J]
Output:Meter:Cumulative,Cooling:EnergyTransfer:Zone:SP-DINING_FLR_5 SYS-3 FLR-7 SCH-B HPLCMT-SOUTH ZN,hourly; !- [J]
Output:Meter,EnergyTransfer:Zone:SP-ER_EXAM1_MULT4_FLR_1 SYS-3 FLR-2 SCH-H HPLCMT-SOUTH ZN,hourly; !- [J]
Output:Meter:Cumulative,EnergyTransfer:Zone:SP-ER_EXAM1_MULT4_FLR_1 SYS-3 FLR-2 SCH-H HPLCMT-SOUTH ZN,hourly; !- [J]
Output:Meter,Heating:EnergyTransfer:Zone:SP-ER_EXAM1_MULT4_FLR_1 SYS-3 FLR-2 SCH-H HPLCMT-SOUTH ZN,hourly; !- [J]
Output:Meter:Cumulative,Heating:EnergyTransfer:Zone:SP-ER_EXAM1_MULT4_FLR_1 SYS-3 FLR-2 SCH-H HPLCMT-SOUTH ZN,hourly; !- [J]
Output:Meter,Cooling:EnergyTransfer:Zone:SP-ER_EXAM1_MULT4_FLR_1 SYS-3 FLR-2 SCH-H HPLCMT-SOUTH ZN,hourly; !- [J]
Output:Meter:Cumulative,Cooling:EnergyTransfer:Zone:SP-ER_EXAM1_MULT4_FLR_1 SYS-3 FLR-2 SCH-H HPLCMT-SOUTH ZN,hourly; !- [J]
Output:Meter,EnergyTransfer:Zone:SP-ER_EXAM3_MULT4_FLR_1 SYS-3 FLR-2 SCH-H HPLCMT-EAST ZN,hourly; !- [J]
Output:Meter:Cumulative,EnergyTransfer:Zone:SP-ER_EXAM3_MULT4_FLR_1 SYS-3 FLR-2 SCH-H HPLCMT-EAST ZN,hourly; !- [J]
Output:Meter,Heating:EnergyTransfer:Zone:SP-ER_EXAM3_MULT4_FLR_1 SYS-3 FLR-2 SCH-H HPLCMT-EAST ZN,hourly; !- [J]
Output:Meter:Cumulative,Heating:EnergyTransfer:Zone:SP-ER_EXAM3_MULT4_FLR_1 SYS-3 FLR-2 SCH-H HPLCMT-EAST ZN,hourly; !- [J]
Output:Meter,Cooling:EnergyTransfer:Zone:SP-ER_EXAM3_MULT4_FLR_1 SYS-3 FLR-2 SCH-H HPLCMT-EAST ZN,hourly; !- [J]
Output:Meter:Cumulative,Cooling:EnergyTransfer:Zone:SP-ER_EXAM3_MULT4_FLR_1 SYS-3 FLR-2 SCH-H HPLCMT-EAST ZN,hourly; !- [J]
Output:Meter,EnergyTransfer:Zone:SP-ER_NURSESTN_LOBBY_FLR_1 SYS-3 FLR-2 SCH-H HPLCMT-EAST ZN,hourly; !- [J]
Output:Meter:Cumulative,EnergyTransfer:Zone:SP-ER_NURSESTN_LOBBY_FLR_1 SYS-3 FLR-2 SCH-H HPLCMT-EAST ZN,hourly; !- [J]
Output:Meter,Heating:EnergyTransfer:Zone:SP-ER_NURSESTN_LOBBY_FLR_1 SYS-3 FLR-2 SCH-H HPLCMT-EAST ZN,hourly; !- [J]
Output:Meter:Cumulative,Heating:EnergyTransfer:Zone:SP-ER_NURSESTN_LOBBY_FLR_1 SYS-3 FLR-2 SCH-H HPLCMT-EAST ZN,hourly; !- [J]
Output:Meter,Cooling:EnergyTransfer:Zone:SP-ER_NURSESTN_LOBBY_FLR_1 SYS-3 FLR-2 SCH-H HPLCMT-EAST ZN,hourly; !- [J]
Output:Meter:Cumulative,Cooling:EnergyTransfer:Zone:SP-ER_NURSESTN_LOBBY_FLR_1 SYS-3 FLR-2 SCH-H HPLCMT-EAST ZN,hourly; !- [J]
Output:Meter,EnergyTransfer:Zone:SP-ER_TRAUMA1_FLR_1 SYS-3 FLR-2 SCH-H HPLCMT-SOUTH ZN,hourly; !- [J]
Output:Meter:Cumulative,EnergyTransfer:Zone:SP-ER_TRAUMA1_FLR_1 SYS-3 FLR-2 SCH-H HPLCMT-SOUTH ZN,hourly; !- [J]
Output:Meter,Heating:EnergyTransfer:Zone:SP-ER_TRAUMA1_FLR_1 SYS-3 FLR-2 SCH-H HPLCMT-SOUTH ZN,hourly; !- [J]
Output:Meter:Cumulative,Heating:EnergyTransfer:Zone:SP-ER_TRAUMA1_FLR_1 SYS-3 FLR-2 SCH-H HPLCMT-SOUTH ZN,hourly; !- [J]
Output:Meter,Cooling:EnergyTransfer:Zone:SP-ER_TRAUMA1_FLR_1 SYS-3 FLR-2 SCH-H HPLCMT-SOUTH ZN,hourly; !- [J]
Output:Meter:Cumulative,Cooling:EnergyTransfer:Zone:SP-ER_TRAUMA1_FLR_1 SYS-3 FLR-2 SCH-H HPLCMT-SOUTH ZN,hourly; !- [J]
Output:Meter,EnergyTransfer:Zone:SP-ER_TRAUMA2_FLR_1 SYS-3 FLR-2 SCH-H HPLCMT-NORTH ZN,hourly; !- [J]
Output:Meter:Cumulative,EnergyTransfer:Zone:SP-ER_TRAUMA2_FLR_1 SYS-3 FLR-2 SCH-H HPLCMT-NORTH ZN,hourly; !- [J]
Output:Meter,Heating:EnergyTransfer:Zone:SP-ER_TRAUMA2_FLR_1 SYS-3 FLR-2 SCH-H HPLCMT-NORTH ZN,hourly; !- [J]
Output:Meter:Cumulative,Heating:EnergyTransfer:Zone:SP-ER_TRAUMA2_FLR_1 SYS-3 FLR-2 SCH-H HPLCMT-NORTH ZN,hourly; !- [J]
Output:Meter,Cooling:EnergyTransfer:Zone:SP-ER_TRAUMA2_FLR_1 SYS-3 FLR-2 SCH-H HPLCMT-NORTH ZN,hourly; !- [J]
Output:Meter:Cumulative,Cooling:EnergyTransfer:Zone:SP-ER_TRAUMA2_FLR_1 SYS-3 FLR-2 SCH-H HPLCMT-NORTH ZN,hourly; !- [J]
Output:Meter,EnergyTransfer:Zone:SP-ER_TRIAGE_MULT4_FLR_1 SYS-3 FLR-2 SCH-H HPLCMT-NORTH ZN,hourly; !- [J]
Output:Meter:Cumulative,EnergyTransfer:Zone:SP-ER_TRIAGE_MULT4_FLR_1 SYS-3 FLR-2 SCH-H HPLCMT-NORTH ZN,hourly; !- [J]
Output:Meter,Heating:EnergyTransfer:Zone:SP-ER_TRIAGE_MULT4_FLR_1 SYS-3 FLR-2 SCH-H HPLCMT-NORTH ZN,hourly; !- [J]
Output:Meter:Cumulative,Heating:EnergyTransfer:Zone:SP-ER_TRIAGE_MULT4_FLR_1 SYS-3 FLR-2 SCH-H HPLCMT-NORTH ZN,hourly; !- [J]
Output:Meter,Cooling:EnergyTransfer:Zone:SP-ER_TRIAGE_MULT4_FLR_1 SYS-3 FLR-2 SCH-H HPLCMT-NORTH ZN,hourly; !- [J]
Output:Meter:Cumulative,Cooling:EnergyTransfer:Zone:SP-ER_TRIAGE_MULT4_FLR_1 SYS-3 FLR-2 SCH-H HPLCMT-NORTH ZN,hourly; !- [J]
Output:Meter,EnergyTransfer:Zone:SP-ICU_FLR_2 SYS-3 FLR-3 SCH-H HPLCMT-SOUTH ZN,hourly; !- [J]
Output:Meter:Cumulative,EnergyTransfer:Zone:SP-ICU_FLR_2 SYS-3 FLR-3 SCH-H HPLCMT-SOUTH ZN,hourly; !- [J]
Output:Meter,Heating:EnergyTransfer:Zone:SP-ICU_FLR_2 SYS-3 FLR-3 SCH-H HPLCMT-SOUTH ZN,hourly; !- [J]
Output:Meter:Cumulative,Heating:EnergyTransfer:Zone:SP-ICU_FLR_2 SYS-3 FLR-3 SCH-H HPLCMT-SOUTH ZN,hourly; !- [J]
Output:Meter,Cooling:EnergyTransfer:Zone:SP-ICU_FLR_2 SYS-3 FLR-3 SCH-H HPLCMT-SOUTH ZN,hourly; !- [J]
Output:Meter:Cumulative,Cooling:EnergyTransfer:Zone:SP-ICU_FLR_2 SYS-3 FLR-3 SCH-H HPLCMT-SOUTH ZN,hourly; !- [J]
Output:Meter,EnergyTransfer:Zone:SP-ICU_NURSESTN_LOBBY_FLR_2 SYS-3 FLR-3 SCH-H HPLCMT-CORE ZN,hourly; !- [J]
Output:Meter:Cumulative,EnergyTransfer:Zone:SP-ICU_NURSESTN_LOBBY_FLR_2 SYS-3 FLR-3 SCH-H HPLCMT-CORE ZN,hourly; !- [J]
Output:Meter,Heating:EnergyTransfer:Zone:SP-ICU_NURSESTN_LOBBY_FLR_2 SYS-3 FLR-3 SCH-H HPLCMT-CORE ZN,hourly; !- [J]
Output:Meter:Cumulative,Heating:EnergyTransfer:Zone:SP-ICU_NURSESTN_LOBBY_FLR_2 SYS-3 FLR-3 SCH-H HPLCMT-CORE ZN,hourly; !- [J]
Output:Meter,Cooling:EnergyTransfer:Zone:SP-ICU_NURSESTN_LOBBY_FLR_2 SYS-3 FLR-3 SCH-H HPLCMT-CORE ZN,hourly; !- [J]
Output:Meter:Cumulative,Cooling:EnergyTransfer:Zone:SP-ICU_NURSESTN_LOBBY_FLR_2 SYS-3 FLR-3 SCH-H HPLCMT-CORE ZN,hourly; !- [J]
Output:Meter,EnergyTransfer:Zone:SP-IC_PATROOM1_MULT5_FLR_2 SYS-3 FLR-3 SCH-H HPLCMT-NORTH ZN,hourly; !- [J]
Output:Meter:Cumulative,EnergyTransfer:Zone:SP-IC_PATROOM1_MULT5_FLR_2 SYS-3 FLR-3 SCH-H HPLCMT-NORTH ZN,hourly; !- [J]
Output:Meter,Heating:EnergyTransfer:Zone:SP-IC_PATROOM1_MULT5_FLR_2 SYS-3 FLR-3 SCH-H HPLCMT-NORTH ZN,hourly; !- [J]
Output:Meter:Cumulative,Heating:EnergyTransfer:Zone:SP-IC_PATROOM1_MULT5_FLR_2 SYS-3 FLR-3 SCH-H HPLCMT-NORTH ZN,hourly; !- [J]
Output:Meter,Cooling:EnergyTransfer:Zone:SP-IC_PATROOM1_MULT5_FLR_2 SYS-3 FLR-3 SCH-H HPLCMT-NORTH ZN,hourly; !- [J]
Output:Meter:Cumulative,Cooling:EnergyTransfer:Zone:SP-IC_PATROOM1_MULT5_FLR_2 SYS-3 FLR-3 SCH-H HPLCMT-NORTH ZN,hourly; !- [J]
Output:Meter,EnergyTransfer:Zone:SP-IC_PATROOM2_FLR_2 SYS-3 FLR-3 SCH-H HPLCMT-NORTH ZN,hourly; !- [J]
Output:Meter:Cumulative,EnergyTransfer:Zone:SP-IC_PATROOM2_FLR_2 SYS-3 FLR-3 SCH-H HPLCMT-NORTH ZN,hourly; !- [J]
Output:Meter,Heating:EnergyTransfer:Zone:SP-IC_PATROOM2_FLR_2 SYS-3 FLR-3 SCH-H HPLCMT-NORTH ZN,hourly; !- [J]
Output:Meter:Cumulative,Heating:EnergyTransfer:Zone:SP-IC_PATROOM2_FLR_2 SYS-3 FLR-3 SCH-H HPLCMT-NORTH ZN,hourly; !- [J]
Output:Meter,Cooling:EnergyTransfer:Zone:SP-IC_PATROOM2_FLR_2 SYS-3 FLR-3 SCH-H HPLCMT-NORTH ZN,hourly; !- [J]
Output:Meter:Cumulative,Cooling:EnergyTransfer:Zone:SP-IC_PATROOM2_FLR_2 SYS-3 FLR-3 SCH-H HPLCMT-NORTH ZN,hourly; !- [J]
Output:Meter,EnergyTransfer:Zone:SP-IC_PATROOM3_MULT6_FLR_2 SYS-3 FLR-3 SCH-H HPLCMT-WEST ZN,hourly; !- [J]
Output:Meter:Cumulative,EnergyTransfer:Zone:SP-IC_PATROOM3_MULT6_FLR_2 SYS-3 FLR-3 SCH-H HPLCMT-WEST ZN,hourly; !- [J]
Output:Meter,Heating:EnergyTransfer:Zone:SP-IC_PATROOM3_MULT6_FLR_2 SYS-3 FLR-3 SCH-H HPLCMT-WEST ZN,hourly; !- [J]
Output:Meter:Cumulative,Heating:EnergyTransfer:Zone:SP-IC_PATROOM3_MULT6_FLR_2 SYS-3 FLR-3 SCH-H HPLCMT-WEST ZN,hourly; !- [J]
Output:Meter,Cooling:EnergyTransfer:Zone:SP-IC_PATROOM3_MULT6_FLR_2 SYS-3 FLR-3 SCH-H HPLCMT-WEST ZN,hourly; !- [J]
Output:Meter:Cumulative,Cooling:EnergyTransfer:Zone:SP-IC_PATROOM3_MULT6_FLR_2 SYS-3 FLR-3 SCH-H HPLCMT-WEST ZN,hourly; !- [J]
Output:Meter,EnergyTransfer:Zone:SP-KITCHEN_FLR_5 SYS-3 FLR-7 SCH-B HPLCMT-NORTH ZN,hourly; !- [J]
Output:Meter:Cumulative,EnergyTransfer:Zone:SP-KITCHEN_FLR_5 SYS-3 FLR-7 SCH-B HPLCMT-NORTH ZN,hourly; !- [J]
Output:Meter,Heating:EnergyTransfer:Zone:SP-KITCHEN_FLR_5 SYS-3 FLR-7 SCH-B HPLCMT-NORTH ZN,hourly; !- [J]
Output:Meter:Cumulative,Heating:EnergyTransfer:Zone:SP-KITCHEN_FLR_5 SYS-3 FLR-7 SCH-B HPLCMT-NORTH ZN,hourly; !- [J]
Output:Meter,Cooling:EnergyTransfer:Zone:SP-KITCHEN_FLR_5 SYS-3 FLR-7 SCH-B HPLCMT-NORTH ZN,hourly; !- [J]
Output:Meter:Cumulative,Cooling:EnergyTransfer:Zone:SP-KITCHEN_FLR_5 SYS-3 FLR-7 SCH-B HPLCMT-NORTH ZN,hourly; !- [J]
Output:Meter,EnergyTransfer:Zone:SP-LAB_FLR_3 SYS-3 FLR-4 SCH-A HPLCMT-CORE ZN,hourly; !- [J]
Output:Meter:Cumulative,EnergyTransfer:Zone:SP-LAB_FLR_3 SYS-3 FLR-4 SCH-A HPLCMT-CORE ZN,hourly; !- [J]
Output:Meter,Heating:EnergyTransfer:Zone:SP-LAB_FLR_3 SYS-3 FLR-4 SCH-A HPLCMT-CORE ZN,hourly; !- [J]
Output:Meter:Cumulative,Heating:EnergyTransfer:Zone:SP-LAB_FLR_3 SYS-3 FLR-4 SCH-A HPLCMT-CORE ZN,hourly; !- [J]
Output:Meter,Cooling:EnergyTransfer:Zone:SP-LAB_FLR_3 SYS-3 FLR-4 SCH-A HPLCMT-CORE ZN,hourly; !- [J]
Output:Meter:Cumulative,Cooling:EnergyTransfer:Zone:SP-LAB_FLR_3 SYS-3 FLR-4 SCH-A HPLCMT-CORE ZN,hourly; !- [J]
Output:Meter,EnergyTransfer:Zone:SP-LAB_FLR_4 SYS-3 FLR-5 SCH-A HPLCMT-CORE ZN,hourly; !- [J]
Output:Meter:Cumulative,EnergyTransfer:Zone:SP-LAB_FLR_4 SYS-3 FLR-5 SCH-A HPLCMT-CORE ZN,hourly; !- [J]
Output:Meter,Heating:EnergyTransfer:Zone:SP-LAB_FLR_4 SYS-3 FLR-5 SCH-A HPLCMT-CORE ZN,hourly; !- [J]
Output:Meter:Cumulative,Heating:EnergyTransfer:Zone:SP-LAB_FLR_4 SYS-3 FLR-5 SCH-A HPLCMT-CORE ZN,hourly; !- [J]
Output:Meter,Cooling:EnergyTransfer:Zone:SP-LAB_FLR_4 SYS-3 FLR-5 SCH-A HPLCMT-CORE ZN,hourly; !- [J]
Output:Meter:Cumulative,Cooling:EnergyTransfer:Zone:SP-LAB_FLR_4 SYS-3 FLR-5 SCH-A HPLCMT-CORE ZN,hourly; !- [J]
Output:Meter,EnergyTransfer:Zone:SP-LOBBY_RECORDS_FLR_1 SYS-6 FLR-2 SCH-A HPLCMT-WEST ZN,hourly; !- [J]
Output:Meter:Cumulative,EnergyTransfer:Zone:SP-LOBBY_RECORDS_FLR_1 SYS-6 FLR-2 SCH-A HPLCMT-WEST ZN,hourly; !- [J]
Output:Meter,Heating:EnergyTransfer:Zone:SP-LOBBY_RECORDS_FLR_1 SYS-6 FLR-2 SCH-A HPLCMT-WEST ZN,hourly; !- [J]
Output:Meter:Cumulative,Heating:EnergyTransfer:Zone:SP-LOBBY_RECORDS_FLR_1 SYS-6 FLR-2 SCH-A HPLCMT-WEST ZN,hourly; !- [J]
Output:Meter,Cooling:EnergyTransfer:Zone:SP-LOBBY_RECORDS_FLR_1 SYS-6 FLR-2 SCH-A HPLCMT-WEST ZN,hourly; !- [J]
Output:Meter:Cumulative,Cooling:EnergyTransfer:Zone:SP-LOBBY_RECORDS_FLR_1 SYS-6 FLR-2 SCH-A HPLCMT-WEST ZN,hourly; !- [J]
Output:Meter,EnergyTransfer:Zone:SP-NURSESTN_LOBBY_FLR_3 SYS-3 FLR-4 SCH-H HPLCMT-CORE ZN,hourly; !- [J]
Output:Meter:Cumulative,EnergyTransfer:Zone:SP-NURSESTN_LOBBY_FLR_3 SYS-3 FLR-4 SCH-H HPLCMT-CORE ZN,hourly; !- [J]
Output:Meter,Heating:EnergyTransfer:Zone:SP-NURSESTN_LOBBY_FLR_3 SYS-3 FLR-4 SCH-H HPLCMT-CORE ZN,hourly; !- [J]
Output:Meter:Cumulative,Heating:EnergyTransfer:Zone:SP-NURSESTN_LOBBY_FLR_3 SYS-3 FLR-4 SCH-H HPLCMT-CORE ZN,hourly; !- [J]
Output:Meter,Cooling:EnergyTransfer:Zone:SP-NURSESTN_LOBBY_FLR_3 SYS-3 FLR-4 SCH-H HPLCMT-CORE ZN,hourly; !- [J]
Output:Meter:Cumulative,Cooling:EnergyTransfer:Zone:SP-NURSESTN_LOBBY_FLR_3 SYS-3 FLR-4 SCH-H HPLCMT-CORE ZN,hourly; !- [J]
Output:Meter,EnergyTransfer:Zone:SP-NURSESTN_LOBBY_FLR_4 SYS-3 FLR-5 SCH-H HPLCMT-CORE ZN,hourly; !- [J]
Output:Meter:Cumulative,EnergyTransfer:Zone:SP-NURSESTN_LOBBY_FLR_4 SYS-3 FLR-5 SCH-H HPLCMT-CORE ZN,hourly; !- [J]
Output:Meter,Heating:EnergyTransfer:Zone:SP-NURSESTN_LOBBY_FLR_4 SYS-3 FLR-5 SCH-H HPLCMT-CORE ZN,hourly; !- [J]
Output:Meter:Cumulative,Heating:EnergyTransfer:Zone:SP-NURSESTN_LOBBY_FLR_4 SYS-3 FLR-5 SCH-H HPLCMT-CORE ZN,hourly; !- [J]
Output:Meter,Cooling:EnergyTransfer:Zone:SP-NURSESTN_LOBBY_FLR_4 SYS-3 FLR-5 SCH-H HPLCMT-CORE ZN,hourly; !- [J]
Output:Meter:Cumulative,Cooling:EnergyTransfer:Zone:SP-NURSESTN_LOBBY_FLR_4 SYS-3 FLR-5 SCH-H HPLCMT-CORE ZN,hourly; !- [J]
Output:Meter,EnergyTransfer:Zone:SP-NURSESTN_LOBBY_FLR_5 SYS-3 FLR-7 SCH-H HPLCMT-SOUTH ZN,hourly; !- [J]
Output:Meter:Cumulative,EnergyTransfer:Zone:SP-NURSESTN_LOBBY_FLR_5 SYS-3 FLR-7 SCH-H HPLCMT-SOUTH ZN,hourly; !- [J]
Output:Meter,Heating:EnergyTransfer:Zone:SP-NURSESTN_LOBBY_FLR_5 SYS-3 FLR-7 SCH-H HPLCMT-SOUTH ZN,hourly; !- [J]
Output:Meter:Cumulative,Heating:EnergyTransfer:Zone:SP-NURSESTN_LOBBY_FLR_5 SYS-3 FLR-7 SCH-H HPLCMT-SOUTH ZN,hourly; !- [J]
Output:Meter,Cooling:EnergyTransfer:Zone:SP-NURSESTN_LOBBY_FLR_5 SYS-3 FLR-7 SCH-H HPLCMT-SOUTH ZN,hourly; !- [J]
Output:Meter:Cumulative,Cooling:EnergyTransfer:Zone:SP-NURSESTN_LOBBY_FLR_5 SYS-3 FLR-7 SCH-H HPLCMT-SOUTH ZN,hourly; !- [J]
Output:Meter,EnergyTransfer:Zone:SP-OFFICE1_FLR_5 SYS-6 FLR-7 SCH-A HPLCMT-SOUTH ZN,hourly; !- [J]
Output:Meter:Cumulative,EnergyTransfer:Zone:SP-OFFICE1_FLR_5 SYS-6 FLR-7 SCH-A HPLCMT-SOUTH ZN,hourly; !- [J]
Output:Meter,Heating:EnergyTransfer:Zone:SP-OFFICE1_FLR_5 SYS-6 FLR-7 SCH-A HPLCMT-SOUTH ZN,hourly; !- [J]
Output:Meter:Cumulative,Heating:EnergyTransfer:Zone:SP-OFFICE1_FLR_5 SYS-6 FLR-7 SCH-A HPLCMT-SOUTH ZN,hourly; !- [J]
Output:Meter,Cooling:EnergyTransfer:Zone:SP-OFFICE1_FLR_5 SYS-6 FLR-7 SCH-A HPLCMT-SOUTH ZN,hourly; !- [J]
Output:Meter:Cumulative,Cooling:EnergyTransfer:Zone:SP-OFFICE1_FLR_5 SYS-6 FLR-7 SCH-A HPLCMT-SOUTH ZN,hourly; !- [J]
Output:Meter,EnergyTransfer:Zone:SP-OFFICE1_MULT4_FLR_1 SYS-6 FLR-2 SCH-A HPLCMT-SOUTH ZN,hourly; !- [J]
Output:Meter:Cumulative,EnergyTransfer:Zone:SP-OFFICE1_MULT4_FLR_1 SYS-6 FLR-2 SCH-A HPLCMT-SOUTH ZN,hourly; !- [J]
Output:Meter,Heating:EnergyTransfer:Zone:SP-OFFICE1_MULT4_FLR_1 SYS-6 FLR-2 SCH-A HPLCMT-SOUTH ZN,hourly; !- [J]
Output:Meter:Cumulative,Heating:EnergyTransfer:Zone:SP-OFFICE1_MULT4_FLR_1 SYS-6 FLR-2 SCH-A HPLCMT-SOUTH ZN,hourly; !- [J]
Output:Meter,Cooling:EnergyTransfer:Zone:SP-OFFICE1_MULT4_FLR_1 SYS-6 FLR-2 SCH-A HPLCMT-SOUTH ZN,hourly; !- [J]
Output:Meter:Cumulative,Cooling:EnergyTransfer:Zone:SP-OFFICE1_MULT4_FLR_1 SYS-6 FLR-2 SCH-A HPLCMT-SOUTH ZN,hourly; !- [J]
Output:Meter,EnergyTransfer:Zone:SP-OFFICE2_MULT5_FLR_5 SYS-6 FLR-7 SCH-A HPLCMT-WEST ZN,hourly; !- [J]
Output:Meter:Cumulative,EnergyTransfer:Zone:SP-OFFICE2_MULT5_FLR_5 SYS-6 FLR-7 SCH-A HPLCMT-WEST ZN,hourly; !- [J]
Output:Meter,Heating:EnergyTransfer:Zone:SP-OFFICE2_MULT5_FLR_5 SYS-6 FLR-7 SCH-A HPLCMT-WEST ZN,hourly; !- [J]
Output:Meter:Cumulative,Heating:EnergyTransfer:Zone:SP-OFFICE2_MULT5_FLR_5 SYS-6 FLR-7 SCH-A HPLCMT-WEST ZN,hourly; !- [J]
Output:Meter,Cooling:EnergyTransfer:Zone:SP-OFFICE2_MULT5_FLR_5 SYS-6 FLR-7 SCH-A HPLCMT-WEST ZN,hourly; !- [J]
Output:Meter:Cumulative,Cooling:EnergyTransfer:Zone:SP-OFFICE2_MULT5_FLR_5 SYS-6 FLR-7 SCH-A HPLCMT-WEST ZN,hourly; !- [J]
Output:Meter,EnergyTransfer:Zone:SP-OFFICE3_FLR_5 SYS-6 FLR-7 SCH-A HPLCMT-NORTH ZN,hourly; !- [J]
Output:Meter:Cumulative,EnergyTransfer:Zone:SP-OFFICE3_FLR_5 SYS-6 FLR-7 SCH-A HPLCMT-NORTH ZN,hourly; !- [J]
Output:Meter,Heating:EnergyTransfer:Zone:SP-OFFICE3_FLR_5 SYS-6 FLR-7 SCH-A HPLCMT-NORTH ZN,hourly; !- [J]
Output:Meter:Cumulative,Heating:EnergyTransfer:Zone:SP-OFFICE3_FLR_5 SYS-6 FLR-7 SCH-A HPLCMT-NORTH ZN,hourly; !- [J]
Output:Meter,Cooling:EnergyTransfer:Zone:SP-OFFICE3_FLR_5 SYS-6 FLR-7 SCH-A HPLCMT-NORTH ZN,hourly; !- [J]
Output:Meter:Cumulative,Cooling:EnergyTransfer:Zone:SP-OFFICE3_FLR_5 SYS-6 FLR-7 SCH-A HPLCMT-NORTH ZN,hourly; !- [J]
Output:Meter,EnergyTransfer:Zone:SP-OFFICE4_MULT6_FLR_5 SYS-6 FLR-7 SCH-A HPLCMT-NORTH ZN,hourly; !- [J]
Output:Meter:Cumulative,EnergyTransfer:Zone:SP-OFFICE4_MULT6_FLR_5 SYS-6 FLR-7 SCH-A HPLCMT-NORTH ZN,hourly; !- [J]
Output:Meter,Heating:EnergyTransfer:Zone:SP-OFFICE4_MULT6_FLR_5 SYS-6 FLR-7 SCH-A HPLCMT-NORTH ZN,hourly; !- [J]
Output:Meter:Cumulative,Heating:EnergyTransfer:Zone:SP-OFFICE4_MULT6_FLR_5 SYS-6 FLR-7 SCH-A HPLCMT-NORTH ZN,hourly; !- [J]
Output:Meter,Cooling:EnergyTransfer:Zone:SP-OFFICE4_MULT6_FLR_5 SYS-6 FLR-7 SCH-A HPLCMT-NORTH ZN,hourly; !- [J]
Output:Meter:Cumulative,Cooling:EnergyTransfer:Zone:SP-OFFICE4_MULT6_FLR_5 SYS-6 FLR-7 SCH-A HPLCMT-NORTH ZN,hourly; !- [J]
Output:Meter,EnergyTransfer:Zone:SP-OR1_FLR_2 SYS-3 FLR-3 SCH-H HPLCMT-NORTH ZN,hourly; !- [J]
Output:Meter:Cumulative,EnergyTransfer:Zone:SP-OR1_FLR_2 SYS-3 FLR-3 SCH-H HPLCMT-NORTH ZN,hourly; !- [J]
Output:Meter,Heating:EnergyTransfer:Zone:SP-OR1_FLR_2 SYS-3 FLR-3 SCH-H HPLCMT-NORTH ZN,hourly; !- [J]
Output:Meter:Cumulative,Heating:EnergyTransfer:Zone:SP-OR1_FLR_2 SYS-3 FLR-3 SCH-H HPLCMT-NORTH ZN,hourly; !- [J]
Output:Meter,Cooling:EnergyTransfer:Zone:SP-OR1_FLR_2 SYS-3 FLR-3 SCH-H HPLCMT-NORTH ZN,hourly; !- [J]
Output:Meter:Cumulative,Cooling:EnergyTransfer:Zone:SP-OR1_FLR_2 SYS-3 FLR-3 SCH-H HPLCMT-NORTH ZN,hourly; !- [J]
Output:Meter,EnergyTransfer:Zone:SP-OR2_MULT5_FLR_2 SYS-3 FLR-3 SCH-H HPLCMT-EAST ZN,hourly; !- [J]
Output:Meter:Cumulative,EnergyTransfer:Zone:SP-OR2_MULT5_FLR_2 SYS-3 FLR-3 SCH-H HPLCMT-EAST ZN,hourly; !- [J]
Output:Meter,Heating:EnergyTransfer:Zone:SP-OR2_MULT5_FLR_2 SYS-3 FLR-3 SCH-H HPLCMT-EAST ZN,hourly; !- [J]
Output:Meter:Cumulative,Heating:EnergyTransfer:Zone:SP-OR2_MULT5_FLR_2 SYS-3 FLR-3 SCH-H HPLCMT-EAST ZN,hourly; !- [J]
Output:Meter,Cooling:EnergyTransfer:Zone:SP-OR2_MULT5_FLR_2 SYS-3 FLR-3 SCH-H HPLCMT-EAST ZN,hourly; !- [J]
Output:Meter:Cumulative,Cooling:EnergyTransfer:Zone:SP-OR2_MULT5_FLR_2 SYS-3 FLR-3 SCH-H HPLCMT-EAST ZN,hourly; !- [J]
Output:Meter,EnergyTransfer:Zone:SP-OR3_FLR_2 SYS-3 FLR-3 SCH-H HPLCMT-NORTH ZN,hourly; !- [J]
Output:Meter:Cumulative,EnergyTransfer:Zone:SP-OR3_FLR_2 SYS-3 FLR-3 SCH-H HPLCMT-NORTH ZN,hourly; !- [J]
Output:Meter,Heating:EnergyTransfer:Zone:SP-OR3_FLR_2 SYS-3 FLR-3 SCH-H HPLCMT-NORTH ZN,hourly; !- [J]
Output:Meter:Cumulative,Heating:EnergyTransfer:Zone:SP-OR3_FLR_2 SYS-3 FLR-3 SCH-H HPLCMT-NORTH ZN,hourly; !- [J]
Output:Meter,Cooling:EnergyTransfer:Zone:SP-OR3_FLR_2 SYS-3 FLR-3 SCH-H HPLCMT-NORTH ZN,hourly; !- [J]
Output:Meter:Cumulative,Cooling:EnergyTransfer:Zone:SP-OR3_FLR_2 SYS-3 FLR-3 SCH-H HPLCMT-NORTH ZN,hourly; !- [J]
Output:Meter,EnergyTransfer:Zone:SP-OR4_FLR_2 SYS-3 FLR-3 SCH-H HPLCMT-CORE ZN,hourly; !- [J]
Output:Meter:Cumulative,EnergyTransfer:Zone:SP-OR4_FLR_2 SYS-3 FLR-3 SCH-H HPLCMT-CORE ZN,hourly; !- [J]
Output:Meter,Heating:EnergyTransfer:Zone:SP-OR4_FLR_2 SYS-3 FLR-3 SCH-H HPLCMT-CORE ZN,hourly; !- [J]
Output:Meter:Cumulative,Heating:EnergyTransfer:Zone:SP-OR4_FLR_2 SYS-3 FLR-3 SCH-H HPLCMT-CORE ZN,hourly; !- [J]
Output:Meter,Cooling:EnergyTransfer:Zone:SP-OR4_FLR_2 SYS-3 FLR-3 SCH-H HPLCMT-CORE ZN,hourly; !- [J]
Output:Meter:Cumulative,Cooling:EnergyTransfer:Zone:SP-OR4_FLR_2 SYS-3 FLR-3 SCH-H HPLCMT-CORE ZN,hourly; !- [J]
Output:Meter,EnergyTransfer:Zone:SP-OR_NURSESTN_LOBBY_FLR_2 SYS-3 FLR-3 SCH-H HPLCMT-SOUTH ZN,hourly; !- [J]
Output:Meter:Cumulative,EnergyTransfer:Zone:SP-OR_NURSESTN_LOBBY_FLR_2 SYS-3 FLR-3 SCH-H HPLCMT-SOUTH ZN,hourly; !- [J]
Output:Meter,Heating:EnergyTransfer:Zone:SP-OR_NURSESTN_LOBBY_FLR_2 SYS-3 FLR-3 SCH-H HPLCMT-SOUTH ZN,hourly; !- [J]
Output:Meter:Cumulative,Heating:EnergyTransfer:Zone:SP-OR_NURSESTN_LOBBY_FLR_2 SYS-3 FLR-3 SCH-H HPLCMT-SOUTH ZN,hourly; !- [J]
Output:Meter,Cooling:EnergyTransfer:Zone:SP-OR_NURSESTN_LOBBY_FLR_2 SYS-3 FLR-3 SCH-H HPLCMT-SOUTH ZN,hourly; !- [J]
Output:Meter:Cumulative,Cooling:EnergyTransfer:Zone:SP-OR_NURSESTN_LOBBY_FLR_2 SYS-3 FLR-3 SCH-H HPLCMT-SOUTH ZN,hourly; !- [J]
Output:Meter,EnergyTransfer:Zone:SP-PATROOM1_MULT10_FLR_3 SYS-3 FLR-4 SCH-H HPLCMT-SOUTH ZN,hourly; !- [J]
Output:Meter:Cumulative,EnergyTransfer:Zone:SP-PATROOM1_MULT10_FLR_3 SYS-3 FLR-4 SCH-H HPLCMT-SOUTH ZN,hourly; !- [J]
Output:Meter,Heating:EnergyTransfer:Zone:SP-PATROOM1_MULT10_FLR_3 SYS-3 FLR-4 SCH-H HPLCMT-SOUTH ZN,hourly; !- [J]
Output:Meter:Cumulative,Heating:EnergyTransfer:Zone:SP-PATROOM1_MULT10_FLR_3 SYS-3 FLR-4 SCH-H HPLCMT-SOUTH ZN,hourly; !- [J]
Output:Meter,Cooling:EnergyTransfer:Zone:SP-PATROOM1_MULT10_FLR_3 SYS-3 FLR-4 SCH-H HPLCMT-SOUTH ZN,hourly; !- [J]
Output:Meter:Cumulative,Cooling:EnergyTransfer:Zone:SP-PATROOM1_MULT10_FLR_3 SYS-3 FLR-4 SCH-H HPLCMT-SOUTH ZN,hourly; !- [J]
Output:Meter,EnergyTransfer:Zone:SP-PATROOM1_MULT10_FLR_4 SYS-3 FLR-5 SCH-H HPLCMT-SOUTH ZN,hourly; !- [J]
Output:Meter:Cumulative,EnergyTransfer:Zone:SP-PATROOM1_MULT10_FLR_4 SYS-3 FLR-5 SCH-H HPLCMT-SOUTH ZN,hourly; !- [J]
Output:Meter,Heating:EnergyTransfer:Zone:SP-PATROOM1_MULT10_FLR_4 SYS-3 FLR-5 SCH-H HPLCMT-SOUTH ZN,hourly; !- [J]
Output:Meter:Cumulative,Heating:EnergyTransfer:Zone:SP-PATROOM1_MULT10_FLR_4 SYS-3 FLR-5 SCH-H HPLCMT-SOUTH ZN,hourly; !- [J]
Output:Meter,Cooling:EnergyTransfer:Zone:SP-PATROOM1_MULT10_FLR_4 SYS-3 FLR-5 SCH-H HPLCMT-SOUTH ZN,hourly; !- [J]
Output:Meter:Cumulative,Cooling:EnergyTransfer:Zone:SP-PATROOM1_MULT10_FLR_4 SYS-3 FLR-5 SCH-H HPLCMT-SOUTH ZN,hourly; !- [J]
Output:Meter,EnergyTransfer:Zone:SP-PATROOM2_FLR_3 SYS-3 FLR-4 SCH-H HPLCMT-SOUTH ZN,hourly; !- [J]
Output:Meter:Cumulative,EnergyTransfer:Zone:SP-PATROOM2_FLR_3 SYS-3 FLR-4 SCH-H HPLCMT-SOUTH ZN,hourly; !- [J]
Output:Meter,Heating:EnergyTransfer:Zone:SP-PATROOM2_FLR_3 SYS-3 FLR-4 SCH-H HPLCMT-SOUTH ZN,hourly; !- [J]
Output:Meter:Cumulative,Heating:EnergyTransfer:Zone:SP-PATROOM2_FLR_3 SYS-3 FLR-4 SCH-H HPLCMT-SOUTH ZN,hourly; !- [J]
Output:Meter,Cooling:EnergyTransfer:Zone:SP-PATROOM2_FLR_3 SYS-3 FLR-4 SCH-H HPLCMT-SOUTH ZN,hourly; !- [J]
Output:Meter:Cumulative,Cooling:EnergyTransfer:Zone:SP-PATROOM2_FLR_3 SYS-3 FLR-4 SCH-H HPLCMT-SOUTH ZN,hourly; !- [J]
Output:Meter,EnergyTransfer:Zone:SP-PATROOM2_FLR_4 SYS-3 FLR-5 SCH-H HPLCMT-SOUTH ZN,hourly; !- [J]
Output:Meter:Cumulative,EnergyTransfer:Zone:SP-PATROOM2_FLR_4 SYS-3 FLR-5 SCH-H HPLCMT-SOUTH ZN,hourly; !- [J]
Output:Meter,Heating:EnergyTransfer:Zone:SP-PATROOM2_FLR_4 SYS-3 FLR-5 SCH-H HPLCMT-SOUTH ZN,hourly; !- [J]
Output:Meter:Cumulative,Heating:EnergyTransfer:Zone:SP-PATROOM2_FLR_4 SYS-3 FLR-5 SCH-H HPLCMT-SOUTH ZN,hourly; !- [J]
Output:Meter,Cooling:EnergyTransfer:Zone:SP-PATROOM2_FLR_4 SYS-3 FLR-5 SCH-H HPLCMT-SOUTH ZN,hourly; !- [J]
Output:Meter:Cumulative,Cooling:EnergyTransfer:Zone:SP-PATROOM2_FLR_4 SYS-3 FLR-5 SCH-H HPLCMT-SOUTH ZN,hourly; !- [J]
Output:Meter,EnergyTransfer:Zone:SP-PATROOM3_MULT10_FLR_3 SYS-3 FLR-4 SCH-H HPLCMT-EAST ZN,hourly; !- [J]
Output:Meter:Cumulative,EnergyTransfer:Zone:SP-PATROOM3_MULT10_FLR_3 SYS-3 FLR-4 SCH-H HPLCMT-EAST ZN,hourly; !- [J]
Output:Meter,Heating:EnergyTransfer:Zone:SP-PATROOM3_MULT10_FLR_3 SYS-3 FLR-4 SCH-H HPLCMT-EAST ZN,hourly; !- [J]
Output:Meter:Cumulative,Heating:EnergyTransfer:Zone:SP-PATROOM3_MULT10_FLR_3 SYS-3 FLR-4 SCH-H HPLCMT-EAST ZN,hourly; !- [J]
Output:Meter,Cooling:EnergyTransfer:Zone:SP-PATROOM3_MULT10_FLR_3 SYS-3 FLR-4 SCH-H HPLCMT-EAST ZN,hourly; !- [J]
Output:Meter:Cumulative,Cooling:EnergyTransfer:Zone:SP-PATROOM3_MULT10_FLR_3 SYS-3 FLR-4 SCH-H HPLCMT-EAST ZN,hourly; !- [J]
Output:Meter,EnergyTransfer:Zone:SP-PATROOM3_MULT10_FLR_4 SYS-3 FLR-5 SCH-H HPLCMT-EAST ZN,hourly; !- [J]
Output:Meter:Cumulative,EnergyTransfer:Zone:SP-PATROOM3_MULT10_FLR_4 SYS-3 FLR-5 SCH-H HPLCMT-EAST ZN,hourly; !- [J]
Output:Meter,Heating:EnergyTransfer:Zone:SP-PATROOM3_MULT10_FLR_4 SYS-3 FLR-5 SCH-H HPLCMT-EAST ZN,hourly; !- [J]
Output:Meter:Cumulative,Heating:EnergyTransfer:Zone:SP-PATROOM3_MULT10_FLR_4 SYS-3 FLR-5 SCH-H HPLCMT-EAST ZN,hourly; !- [J]
Output:Meter,Cooling:EnergyTransfer:Zone:SP-PATROOM3_MULT10_FLR_4 SYS-3 FLR-5 SCH-H HPLCMT-EAST ZN,hourly; !- [J]
Output:Meter:Cumulative,Cooling:EnergyTransfer:Zone:SP-PATROOM3_MULT10_FLR_4 SYS-3 FLR-5 SCH-H HPLCMT-EAST ZN,hourly; !- [J]
Output:Meter,EnergyTransfer:Zone:SP-PATROOM4_FLR_3 SYS-3 FLR-4 SCH-H HPLCMT-NORTH ZN,hourly; !- [J]
Output:Meter:Cumulative,EnergyTransfer:Zone:SP-PATROOM4_FLR_3 SYS-3 FLR-4 SCH-H HPLCMT-NORTH ZN,hourly; !- [J]
Output:Meter,Heating:EnergyTransfer:Zone:SP-PATROOM4_FLR_3 SYS-3 FLR-4 SCH-H HPLCMT-NORTH ZN,hourly; !- [J]
Output:Meter:Cumulative,Heating:EnergyTransfer:Zone:SP-PATROOM4_FLR_3 SYS-3 FLR-4 SCH-H HPLCMT-NORTH ZN,hourly; !- [J]
Output:Meter,Cooling:EnergyTransfer:Zone:SP-PATROOM4_FLR_3 SYS-3 FLR-4 SCH-H HPLCMT-NORTH ZN,hourly; !- [J]
Output:Meter:Cumulative,Cooling:EnergyTransfer:Zone:SP-PATROOM4_FLR_3 SYS-3 FLR-4 SCH-H HPLCMT-NORTH ZN,hourly; !- [J]
Output:Meter,EnergyTransfer:Zone:SP-PATROOM4_FLR_4 SYS-3 FLR-5 SCH-H HPLCMT-NORTH ZN,hourly; !- [J]
Output:Meter:Cumulative,EnergyTransfer:Zone:SP-PATROOM4_FLR_4 SYS-3 FLR-5 SCH-H HPLCMT-NORTH ZN,hourly; !- [J]
Output:Meter,Heating:EnergyTransfer:Zone:SP-PATROOM4_FLR_4 SYS-3 FLR-5 SCH-H HPLCMT-NORTH ZN,hourly; !- [J]
Output:Meter:Cumulative,Heating:EnergyTransfer:Zone:SP-PATROOM4_FLR_4 SYS-3 FLR-5 SCH-H HPLCMT-NORTH ZN,hourly; !- [J]
Output:Meter,Cooling:EnergyTransfer:Zone:SP-PATROOM4_FLR_4 SYS-3 FLR-5 SCH-H HPLCMT-NORTH ZN,hourly; !- [J]
Output:Meter:Cumulative,Cooling:EnergyTransfer:Zone:SP-PATROOM4_FLR_4 SYS-3 FLR-5 SCH-H HPLCMT-NORTH ZN,hourly; !- [J]
Output:Meter,EnergyTransfer:Zone:SP-PATROOM5_MULT10_FLR_3 SYS-3 FLR-4 SCH-H HPLCMT-NORTH ZN,hourly; !- [J]
Output:Meter:Cumulative,EnergyTransfer:Zone:SP-PATROOM5_MULT10_FLR_3 SYS-3 FLR-4 SCH-H HPLCMT-NORTH ZN,hourly; !- [J]
Output:Meter,Heating:EnergyTransfer:Zone:SP-PATROOM5_MULT10_FLR_3 SYS-3 FLR-4 SCH-H HPLCMT-NORTH ZN,hourly; !- [J]
Output:Meter:Cumulative,Heating:EnergyTransfer:Zone:SP-PATROOM5_MULT10_FLR_3 SYS-3 FLR-4 SCH-H HPLCMT-NORTH ZN,hourly; !- [J]
Output:Meter,Cooling:EnergyTransfer:Zone:SP-PATROOM5_MULT10_FLR_3 SYS-3 FLR-4 SCH-H HPLCMT-NORTH ZN,hourly; !- [J]
Output:Meter:Cumulative,Cooling:EnergyTransfer:Zone:SP-PATROOM5_MULT10_FLR_3 SYS-3 FLR-4 SCH-H HPLCMT-NORTH ZN,hourly; !- [J]
Output:Meter,EnergyTransfer:Zone:SP-PATROOM5_MULT10_FLR_4 SYS-3 FLR-5 SCH-H HPLCMT-NORTH ZN,hourly; !- [J]
Output:Meter:Cumulative,EnergyTransfer:Zone:SP-PATROOM5_MULT10_FLR_4 SYS-3 FLR-5 SCH-H HPLCMT-NORTH ZN,hourly; !- [J]
Output:Meter,Heating:EnergyTransfer:Zone:SP-PATROOM5_MULT10_FLR_4 SYS-3 FLR-5 SCH-H HPLCMT-NORTH ZN,hourly; !- [J]
Output:Meter:Cumulative,Heating:EnergyTransfer:Zone:SP-PATROOM5_MULT10_FLR_4 SYS-3 FLR-5 SCH-H HPLCMT-NORTH ZN,hourly; !- [J]
Output:Meter,Cooling:EnergyTransfer:Zone:SP-PATROOM5_MULT10_FLR_4 SYS-3 FLR-5 SCH-H HPLCMT-NORTH ZN,hourly; !- [J]
Output:Meter:Cumulative,Cooling:EnergyTransfer:Zone:SP-PATROOM5_MULT10_FLR_4 SYS-3 FLR-5 SCH-H HPLCMT-NORTH ZN,hourly; !- [J]
Output:Meter,EnergyTransfer:Zone:SP-PATROOM6_FLR_3 SYS-3 FLR-4 SCH-H HPLCMT-SOUTH ZN,hourly; !- [J]
Output:Meter:Cumulative,EnergyTransfer:Zone:SP-PATROOM6_FLR_3 SYS-3 FLR-4 SCH-H HPLCMT-SOUTH ZN,hourly; !- [J]
Output:Meter,Heating:EnergyTransfer:Zone:SP-PATROOM6_FLR_3 SYS-3 FLR-4 SCH-H HPLCMT-SOUTH ZN,hourly; !- [J]
Output:Meter:Cumulative,Heating:EnergyTransfer:Zone:SP-PATROOM6_FLR_3 SYS-3 FLR-4 SCH-H HPLCMT-SOUTH ZN,hourly; !- [J]
Output:Meter,Cooling:EnergyTransfer:Zone:SP-PATROOM6_FLR_3 SYS-3 FLR-4 SCH-H HPLCMT-SOUTH ZN,hourly; !- [J]
Output:Meter:Cumulative,Cooling:EnergyTransfer:Zone:SP-PATROOM6_FLR_3 SYS-3 FLR-4 SCH-H HPLCMT-SOUTH ZN,hourly; !- [J]
Output:Meter,EnergyTransfer:Zone:SP-PATROOM6_FLR_4 SYS-3 FLR-5 SCH-H HPLCMT-SOUTH ZN,hourly; !- [J]
Output:Meter:Cumulative,EnergyTransfer:Zone:SP-PATROOM6_FLR_4 SYS-3 FLR-5 SCH-H HPLCMT-SOUTH ZN,hourly; !- [J]
Output:Meter,Heating:EnergyTransfer:Zone:SP-PATROOM6_FLR_4 SYS-3 FLR-5 SCH-H HPLCMT-SOUTH ZN,hourly; !- [J]
Output:Meter:Cumulative,Heating:EnergyTransfer:Zone:SP-PATROOM6_FLR_4 SYS-3 FLR-5 SCH-H HPLCMT-SOUTH ZN,hourly; !- [J]
Output:Meter,Cooling:EnergyTransfer:Zone:SP-PATROOM6_FLR_4 SYS-3 FLR-5 SCH-H HPLCMT-SOUTH ZN,hourly; !- [J]
Output:Meter:Cumulative,Cooling:EnergyTransfer:Zone:SP-PATROOM6_FLR_4 SYS-3 FLR-5 SCH-H HPLCMT-SOUTH ZN,hourly; !- [J]
Output:Meter,EnergyTransfer:Zone:SP-PATROOM7_MULT10_FLR_3 SYS-3 FLR-4 SCH-H HPLCMT-WEST ZN,hourly; !- [J]
Output:Meter:Cumulative,EnergyTransfer:Zone:SP-PATROOM7_MULT10_FLR_3 SYS-3 FLR-4 SCH-H HPLCMT-WEST ZN,hourly; !- [J]
Output:Meter,Heating:EnergyTransfer:Zone:SP-PATROOM7_MULT10_FLR_3 SYS-3 FLR-4 SCH-H HPLCMT-WEST ZN,hourly; !- [J]
Output:Meter:Cumulative,Heating:EnergyTransfer:Zone:SP-PATROOM7_MULT10_FLR_3 SYS-3 FLR-4 SCH-H HPLCMT-WEST ZN,hourly; !- [J]
Output:Meter,Cooling:EnergyTransfer:Zone:SP-PATROOM7_MULT10_FLR_3 SYS-3 FLR-4 SCH-H HPLCMT-WEST ZN,hourly; !- [J]
Output:Meter:Cumulative,Cooling:EnergyTransfer:Zone:SP-PATROOM7_MULT10_FLR_3 SYS-3 FLR-4 SCH-H HPLCMT-WEST ZN,hourly; !- [J]
Output:Meter,EnergyTransfer:Zone:SP-PATROOM7_MULT10_FLR_4 SYS-3 FLR-5 SCH-H HPLCMT-WEST ZN,hourly; !- [J]
Output:Meter:Cumulative,EnergyTransfer:Zone:SP-PATROOM7_MULT10_FLR_4 SYS-3 FLR-5 SCH-H HPLCMT-WEST ZN,hourly; !- [J]
Output:Meter,Heating:EnergyTransfer:Zone:SP-PATROOM7_MULT10_FLR_4 SYS-3 FLR-5 SCH-H HPLCMT-WEST ZN,hourly; !- [J]
Output:Meter:Cumulative,Heating:EnergyTransfer:Zone:SP-PATROOM7_MULT10_FLR_4 SYS-3 FLR-5 SCH-H HPLCMT-WEST ZN,hourly; !- [J]
Output:Meter,Cooling:EnergyTransfer:Zone:SP-PATROOM7_MULT10_FLR_4 SYS-3 FLR-5 SCH-H HPLCMT-WEST ZN,hourly; !- [J]
Output:Meter:Cumulative,Cooling:EnergyTransfer:Zone:SP-PATROOM7_MULT10_FLR_4 SYS-3 FLR-5 SCH-H HPLCMT-WEST ZN,hourly; !- [J]
Output:Meter,EnergyTransfer:Zone:SP-PATROOM8_FLR_3 SYS-3 FLR-4 SCH-H HPLCMT-NORTH ZN,hourly; !- [J]
Output:Meter:Cumulative,EnergyTransfer:Zone:SP-PATROOM8_FLR_3 SYS-3 FLR-4 SCH-H HPLCMT-NORTH ZN,hourly; !- [J]
Output:Meter,Heating:EnergyTransfer:Zone:SP-PATROOM8_FLR_3 SYS-3 FLR-4 SCH-H HPLCMT-NORTH ZN,hourly; !- [J]
Output:Meter:Cumulative,Heating:EnergyTransfer:Zone:SP-PATROOM8_FLR_3 SYS-3 FLR-4 SCH-H HPLCMT-NORTH ZN,hourly; !- [J]
Output:Meter,Cooling:EnergyTransfer:Zone:SP-PATROOM8_FLR_3 SYS-3 FLR-4 SCH-H HPLCMT-NORTH ZN,hourly; !- [J]
Output:Meter:Cumulative,Cooling:EnergyTransfer:Zone:SP-PATROOM8_FLR_3 SYS-3 FLR-4 SCH-H HPLCMT-NORTH ZN,hourly; !- [J]
Output:Meter,EnergyTransfer:Zone:SP-PATROOM8_FLR_4 SYS-3 FLR-5 SCH-H HPLCMT-NORTH ZN,hourly; !- [J]
Output:Meter:Cumulative,EnergyTransfer:Zone:SP-PATROOM8_FLR_4 SYS-3 FLR-5 SCH-H HPLCMT-NORTH ZN,hourly; !- [J]
Output:Meter,Heating:EnergyTransfer:Zone:SP-PATROOM8_FLR_4 SYS-3 FLR-5 SCH-H HPLCMT-NORTH ZN,hourly; !- [J]
Output:Meter:Cumulative,Heating:EnergyTransfer:Zone:SP-PATROOM8_FLR_4 SYS-3 FLR-5 SCH-H HPLCMT-NORTH ZN,hourly; !- [J]
Output:Meter,Cooling:EnergyTransfer:Zone:SP-PATROOM8_FLR_4 SYS-3 FLR-5 SCH-H HPLCMT-NORTH ZN,hourly; !- [J]
Output:Meter:Cumulative,Cooling:EnergyTransfer:Zone:SP-PATROOM8_FLR_4 SYS-3 FLR-5 SCH-H HPLCMT-NORTH ZN,hourly; !- [J]
Output:Meter,EnergyTransfer:Zone:SP-PHYSTHERAPY_FLR_3 SYS-3 FLR-4 SCH-C HPLCMT-CORE ZN,hourly; !- [J]
Output:Meter:Cumulative,EnergyTransfer:Zone:SP-PHYSTHERAPY_FLR_3 SYS-3 FLR-4 SCH-C HPLCMT-CORE ZN,hourly; !- [J]
Output:Meter,Heating:EnergyTransfer:Zone:SP-PHYSTHERAPY_FLR_3 SYS-3 FLR-4 SCH-C HPLCMT-CORE ZN,hourly; !- [J]
Output:Meter:Cumulative,Heating:EnergyTransfer:Zone:SP-PHYSTHERAPY_FLR_3 SYS-3 FLR-4 SCH-C HPLCMT-CORE ZN,hourly; !- [J]
Output:Meter,Cooling:EnergyTransfer:Zone:SP-PHYSTHERAPY_FLR_3 SYS-3 FLR-4 SCH-C HPLCMT-CORE ZN,hourly; !- [J]
Output:Meter:Cumulative,Cooling:EnergyTransfer:Zone:SP-PHYSTHERAPY_FLR_3 SYS-3 FLR-4 SCH-C HPLCMT-CORE ZN,hourly; !- [J]
Output:Meter,EnergyTransfer:Zone:SP-RADIOLOGY_FLR_4 SYS-3 FLR-5 SCH-H HPLCMT-CORE ZN,hourly; !- [J]
Output:Meter:Cumulative,EnergyTransfer:Zone:SP-RADIOLOGY_FLR_4 SYS-3 FLR-5 SCH-H HPLCMT-CORE ZN,hourly; !- [J]
Output:Meter,Heating:EnergyTransfer:Zone:SP-RADIOLOGY_FLR_4 SYS-3 FLR-5 SCH-H HPLCMT-CORE ZN,hourly; !- [J]
Output:Meter:Cumulative,Heating:EnergyTransfer:Zone:SP-RADIOLOGY_FLR_4 SYS-3 FLR-5 SCH-H HPLCMT-CORE ZN,hourly; !- [J]
Output:Meter,Cooling:EnergyTransfer:Zone:SP-RADIOLOGY_FLR_4 SYS-3 FLR-5 SCH-H HPLCMT-CORE ZN,hourly; !- [J]
Output:Meter:Cumulative,Cooling:EnergyTransfer:Zone:SP-RADIOLOGY_FLR_4 SYS-3 FLR-5 SCH-H HPLCMT-CORE ZN,hourly; !- [J]
Output:Meter,EnergyTransfer:Plant,hourly; !- [J]
Output:Meter:Cumulative,EnergyTransfer:Plant,hourly; !- [J]
Output:Meter,WaterSystems:EnergyTransfer,hourly; !- [J]
Output:Meter:Cumulative,WaterSystems:EnergyTransfer,hourly; !- [J]
Output:Meter,General:WaterSystems:EnergyTransfer,hourly; !- [J]
Output:Meter:Cumulative,General:WaterSystems:EnergyTransfer,hourly; !- [J]
Output:Meter,ElectricityPurchased:Facility,hourly; !- [J]
Output:Meter:Cumulative,ElectricityPurchased:Facility,hourly; !- [J]
Output:Meter,ElectricityPurchased:Plant,hourly; !- [J]
Output:Meter:Cumulative,ElectricityPurchased:Plant,hourly; !- [J]
Output:Meter,Cogeneration:ElectricityPurchased,hourly; !- [J]
Output:Meter:Cumulative,Cogeneration:ElectricityPurchased,hourly; !- [J]
Output:Meter,ElectricitySurplusSold:Facility,hourly; !- [J]
Output:Meter:Cumulative,ElectricitySurplusSold:Facility,hourly; !- [J]
Output:Meter,ElectricitySurplusSold:Plant,hourly; !- [J]
Output:Meter:Cumulative,ElectricitySurplusSold:Plant,hourly; !- [J]
Output:Meter,Cogeneration:ElectricitySurplusSold,hourly; !- [J]
Output:Meter:Cumulative,Cogeneration:ElectricitySurplusSold,hourly; !- [J]
Output:Meter,ElectricityNet:Facility,hourly; !- [J]
Output:Meter:Cumulative,ElectricityNet:Facility,hourly; !- [J]
Output:Meter,ElectricityNet:Plant,hourly; !- [J]
Output:Meter:Cumulative,ElectricityNet:Plant,hourly; !- [J]
Output:Meter,Cogeneration:ElectricityNet,hourly; !- [J]
Output:Meter:Cumulative,Cogeneration:ElectricityNet,hourly; !- [J]
Output:Meter,EnergyTransfer:HVAC,hourly; !- [J]
Output:Meter:Cumulative,EnergyTransfer:HVAC,hourly; !- [J]
Output:Meter,Baseboard:EnergyTransfer,hourly; !- [J]
Output:Meter:Cumulative,Baseboard:EnergyTransfer,hourly; !- [J]
Output:Meter,PlantLoopHeatingDemand:HVAC,hourly; !- [J]
Output:Meter:Cumulative,PlantLoopHeatingDemand:HVAC,hourly; !- [J]
Output:Meter,Baseboard:PlantLoopHeatingDemand,hourly; !- [J]
Output:Meter:Cumulative,Baseboard:PlantLoopHeatingDemand,hourly; !- [J]
Output:Meter,HeatingCoils:EnergyTransfer,hourly; !- [J]
Output:Meter:Cumulative,HeatingCoils:EnergyTransfer,hourly; !- [J]
Output:Meter,HeatingCoils:PlantLoopHeatingDemand,hourly; !- [J]
Output:Meter:Cumulative,HeatingCoils:PlantLoopHeatingDemand,hourly; !- [J]
Output:Meter,CoolingCoils:EnergyTransfer,hourly; !- [J]
Output:Meter:Cumulative,CoolingCoils:EnergyTransfer,hourly; !- [J]
Output:Meter,PlantLoopCoolingDemand:Facility,hourly; !- [J]
Output:Meter:Cumulative,PlantLoopCoolingDemand:Facility,hourly; !- [J]
Output:Meter,PlantLoopCoolingDemand:HVAC,hourly; !- [J]
Output:Meter:Cumulative,PlantLoopCoolingDemand:HVAC,hourly; !- [J]
Output:Meter,CoolingCoils:PlantLoopCoolingDemand,hourly; !- [J]
Output:Meter:Cumulative,CoolingCoils:PlantLoopCoolingDemand,hourly; !- [J]
Output:Meter,Electricity:HVAC,hourly; !- [J]
Output:Meter:Cumulative,Electricity:HVAC,hourly; !- [J]
Output:Meter,Fans:Electricity,hourly; !- [J]
Output:Meter:Cumulative,Fans:Electricity,hourly; !- [J]
Output:Meter,General:Fans:Electricity,hourly; !- [J]
Output:Meter:Cumulative,General:Fans:Electricity,hourly; !- [J]
Output:Meter,Cooling:Electricity,hourly; !- [J]
Output:Meter:Cumulative,Cooling:Electricity,hourly; !- [J]
Output:Meter,Gas:HVAC,hourly; !- [J]
Output:Meter:Cumulative,Gas:HVAC,hourly; !- [J]
Output:Meter,Heating:Gas,hourly; !- [J]
Output:Meter:Cumulative,Heating:Gas,hourly; !- [J]
Output:Meter,Heating:Electricity,hourly; !- [J]
Output:Meter:Cumulative,Heating:Electricity,hourly; !- [J]
Output:Meter,Electricity:Plant,hourly; !- [J]
Output:Meter:Cumulative,Electricity:Plant,hourly; !- [J]
Output:Meter,General:Cooling:Electricity,hourly; !- [J]
Output:Meter:Cumulative,General:Cooling:Electricity,hourly; !- [J]
Output:Meter,Chillers:EnergyTransfer,hourly; !- [J]
Output:Meter:Cumulative,Chillers:EnergyTransfer,hourly; !- [J]
Output:Meter,HeatRejection:EnergyTransfer,hourly; !- [J]
Output:Meter:Cumulative,HeatRejection:EnergyTransfer,hourly; !- [J]
Output:Meter,HeatRejection:Electricity,hourly; !- [J]
Output:Meter:Cumulative,HeatRejection:Electricity,hourly; !- [J]
Output:Meter,General:HeatRejection:Electricity,hourly; !- [J]
Output:Meter:Cumulative,General:HeatRejection:Electricity,hourly; !- [J]
Output:Meter,HeatRejection:Water,hourly; !- [m3]
Output:Meter:Cumulative,HeatRejection:Water,hourly; !- [m3]
Output:Meter,HeatRejection:MainsWater,hourly; !- [m3]
Output:Meter:Cumulative,HeatRejection:MainsWater,hourly; !- [m3]
Output:Meter,Boilers:EnergyTransfer,hourly; !- [J]
Output:Meter:Cumulative,Boilers:EnergyTransfer,hourly; !- [J]
Output:Meter,General:Heating:Gas,hourly; !- [J]
Output:Meter:Cumulative,General:Heating:Gas,hourly; !- [J]
Output:Meter,Boiler Parasitic:Heating:Electricity,hourly; !- [J]
Output:Meter:Cumulative,Boiler Parasitic:Heating:Electricity,hourly; !- [J]
Output:Meter,Pumps:Electricity,hourly; !- [J]
Output:Meter:Cumulative,Pumps:Electricity,hourly; !- [J]
Output:Meter,Carbon Equivalent:Facility,hourly; !- [kg]
Output:Meter:Cumulative,Carbon Equivalent:Facility,hourly; !- [kg]
Output:Meter,CarbonEquivalentEmissions:Carbon Equivalent,hourly; !- [kg]
Output:Meter:Cumulative,CarbonEquivalentEmissions:Carbon Equivalent,hourly; !- [kg]
