Program Version,EnergyPlus, Version 8.9.0-eba93e8e1b, YMD=2018.09.18 16:58
! <Version>, Version ID
 Version, 8.9
! <Timesteps per Hour>, #TimeSteps, Minutes per TimeStep {minutes}
 Timesteps per Hour,  6, 10
! <System Convergence Limits>, Minimum System TimeStep {minutes}, Max HVAC Iterations, Minimum Plant Iterations, Maximum Plant Iterations
 System Convergence Limits, 1, 20, 2, 8
! <Simulation Control>, Do Zone Sizing, Do System Sizing, Do Plant Sizing, Do Design Days, Do Weather Simulation, Do HVAC Sizing Simulation
 Simulation Control, Yes, Yes, Yes, Yes, No, No
! <Output Reporting Tolerances>, Tolerance for Time Heating Setpoint Not Met, Tolerance for Zone Cooling Setpoint Not Met Time
 Output Reporting Tolerances, 1.000, 1.000, 
! <Site:GroundTemperature:BuildingSurface>,Jan{C},Feb{C},Mar{C},Apr{C},May{C},Jun{C},Jul{C},Aug{C},Sep{C},Oct{C},Nov{C},Dec{C}
 Site:GroundTemperature:BuildingSurface,  19.53,  19.50,  19.54,  19.60,  20.00,  21.64,  22.23,  22.38,  21.45,  20.12,  19.80,  19.63
! <Site:GroundTemperature:FCfactorMethod>,Jan{C},Feb{C},Mar{C},Apr{C},May{C},Jun{C},Jul{C},Aug{C},Sep{C},Oct{C},Nov{C},Dec{C}
 Site:GroundTemperature:FCfactorMethod,   4.64,   4.08,   5.08,   6.66,  10.79,  13.98,  16.13,  16.78,  15.67,  13.19,   9.89,   6.82
! <Site:GroundTemperature:Shallow>,Jan{C},Feb{C},Mar{C},Apr{C},May{C},Jun{C},Jul{C},Aug{C},Sep{C},Oct{C},Nov{C},Dec{C}
 Site:GroundTemperature:Shallow,  13.00,  13.00,  13.00,  13.00,  13.00,  13.00,  13.00,  13.00,  13.00,  13.00,  13.00,  13.00
! <Site:GroundTemperature:Deep>,Jan{C},Feb{C},Mar{C},Apr{C},May{C},Jun{C},Jul{C},Aug{C},Sep{C},Oct{C},Nov{C},Dec{C}
 Site:GroundTemperature:Deep,  16.00,  16.00,  16.00,  16.00,  16.00,  16.00,  16.00,  16.00,  16.00,  16.00,  16.00,  16.00
! <Site:GroundReflectance>,Jan{dimensionless},Feb{dimensionless},Mar{dimensionless},Apr{dimensionless},May{dimensionless},Jun{dimensionless},Jul{dimensionless},Aug{dimensionless},Sep{dimensionless},Oct{dimensionless},Nov{dimensionless},Dec{dimensionless}
 Site:GroundReflectance,  0.20,  0.20,  0.20,  0.20,  0.20,  0.20,  0.20,  0.20,  0.20,  0.20,  0.20,  0.20
! <Site:GroundReflectance:SnowModifier>, Normal, Daylighting {dimensionless}
 Site:GroundReflectance:SnowModifier,   1.000,   1.000
! <Site:GroundReflectance:Snow>,Jan{dimensionless},Feb{dimensionless},Mar{dimensionless},Apr{dimensionless},May{dimensionless},Jun{dimensionless},Jul{dimensionless},Aug{dimensionless},Sep{dimensionless},Oct{dimensionless},Nov{dimensionless},Dec{dimensionless}
 Site:GroundReflectance:Snow,  0.20,  0.20,  0.20,  0.20,  0.20,  0.20,  0.20,  0.20,  0.20,  0.20,  0.20,  0.20
! <Site:GroundReflectance:Snow:Daylighting>,Jan{dimensionless},Feb{dimensionless},Mar{dimensionless},Apr{dimensionless},May{dimensionless},Jun{dimensionless},Jul{dimensionless},Aug{dimensionless},Sep{dimensionless},Oct{dimensionless},Nov{dimensionless},Dec{dimensionless}
 Site:GroundReflectance:Snow:Daylighting,  0.20,  0.20,  0.20,  0.20,  0.20,  0.20,  0.20,  0.20,  0.20,  0.20,  0.20,  0.20
! <Environment:Weather Station>,Wind Sensor Height Above Ground {m},Wind Speed Profile Exponent {},Wind Speed Profile Boundary Layer Thickness {m},Air Temperature Sensor Height Above Ground {m},Wind Speed Modifier Coefficient-Internal,Temperature Modifier Coefficient-Internal
Environment:Weather Station,10.000,0.140,270.000,1.500,1.586,9.750E-003
! <Site:Location>, Location Name, Latitude {N+/S- Deg}, Longitude {E+/W- Deg},  Time Zone Number {GMT+/-}, Elevation {m},  Standard Pressure at Elevation {Pa}, Standard RhoAir at Elevation
Site:Location,Vancouver Intl AP BC CAN CWEC2016 WMO#=718920,49.20,-123.18,-8.00,4.30,101273,1.2037
! <Building Information>, Building Name,North Axis {deg},Terrain,  Loads Convergence Tolerance Value,Temperature Convergence Tolerance Value,  Solar Distribution,Maximum Number of Warmup Days,Minimum Number of Warmup Days
 Building Information,Hospital-CAN_BC_Vancouver.Intl.AP.718920_CWEC2016.epw created: 2018-09-18 16:56:11 +0000,0.000,Suburbs,4.00000E-002,0.40000,FullExterior,25,6
! <Inside Convection Algorithm>, Algorithm {Simple | TARP | CeilingDiffuser | AdaptiveConvectionAlgorithm}
Inside Convection Algorithm,TARP
! <Outside Convection Algorithm>, Algorithm {SimpleCombined | TARP | MoWitt | DOE-2 | AdaptiveConvectionAlgorithm}
Outside Convection Algorithm,TARP
! <Sky Radiance Distribution>, Value {Anisotropic}
Sky Radiance Distribution,Anisotropic
! <Zone Air Solution Algorithm>, Value {ThirdOrderBackwardDifference | AnalyticalSolution | EulerMethod}
 Zone Air Solution Algorithm, ThirdOrderBackwardDifference
! <Zone Air Carbon Dioxide Balance Simulation>, Simulation {Yes/No}, Carbon Dioxide Concentration
 Zone Air Carbon Dioxide Balance Simulation, No,N/A
! <Zone Air Generic Contaminant Balance Simulation>, Simulation {Yes/No}, Generic Contaminant Concentration
 Zone Air Generic Contaminant Balance Simulation, No,N/A
! <Zone Air Mass Flow Balance Simulation>, Enforce Mass Balance, Adjust Zone Mixing, Adjust Zone Infiltration {AddInfiltration | AdjustInfiltration | None}, Infiltration Zones {MixingSourceZonesOnly | AllZones}
 Zone Air Mass Flow Balance Simulation, No,N/A,N/A,N/A
! <HVACSystemRootFindingAlgorithm>, Value {RegulaFalsi | Bisection | BisectionThenRegulaFalsi | RegulaFalsiThenBisection}
 HVACSystemRootFindingAlgorithm, RegulaFalsi
! <Environment:Site Atmospheric Variation>,Wind Speed Profile Exponent {},Wind Speed Profile Boundary Layer Thickness {m},Air Temperature Gradient Coefficient {K/m}
Environment:Site Atmospheric Variation,0.220,370.000,6.500000E-003
! <Surface Geometry>,Starting Corner,Vertex Input Direction,Coordinate System,Daylight Reference Point Coordinate System,Rectangular (Simple) Surface Coordinate System
 Surface Geometry,UpperLeftCorner,Counterclockwise,RelativeCoordinateSystem,RelativeCoordinateSystem,RelativeToZoneOrigin
! <Surface Heat Transfer Algorithm>, Value {CTF - ConductionTransferFunction | EMPD - MoisturePenetrationDepthConductionTransferFunction | CondFD - ConductionFiniteDifference | HAMT - CombinedHeatAndMoistureFiniteElement} - Description,Inside Surface Max Temperature Limit{C}, Surface Convection Coefficient Lower Limit {W/m2-K}, Surface Convection Coefficient Upper Limit {W/m2-K}
Surface Heat Transfer Algorithm, CTF - ConductionTransferFunction,200,0.10,1000.0
! <Shading Summary>, Number of Fixed Detached Shades, Number of Building Detached Shades, Number of Attached Shades
 Shading Summary,0,0,0
! <Zone Summary>, Number of Zones, Number of Zone Surfaces, Number of SubSurfaces
 Zone Summary,55,630,38
! <Zone Information>,Zone Name,North Axis {deg},Origin X-Coordinate {m},Origin Y-Coordinate {m},Origin Z-Coordinate {m},Centroid X-Coordinate {m},Centroid Y-Coordinate {m},Centroid Z-Coordinate {m},Type,Zone Multiplier,Zone List Multiplier,Minimum X {m},Maximum X {m},Minimum Y {m},Maximum Y {m},Minimum Z {m},Maximum Z {m},Ceiling Height {m},Volume {m3},Zone Inside Convection Algorithm {Simple-Detailed-CeilingDiffuser-TrombeWall},Zone Outside Convection Algorithm {Simple-Detailed-Tarp-MoWitt-DOE-2-BLAST}, Floor Area {m2},Exterior Gross Wall Area {m2},Exterior Net Wall Area {m2},Exterior Window Area {m2}, Number of Surfaces, Number of SubSurfaces, Number of Shading SubSurfaces,  Part of Total Building Area
 Zone Information, SP-BASEMENT SYS-3 FLR-1 SCH-A HPLCMT-NORTH ZN,0.0,0.00,0.00,-2.44,35.05,26.67,-1.22,1,1,1,0.00,70.10,0.00,53.34,-2.44,0.00,2.44,9118.02,TARP,TARP,3739.35,0.00,0.00,0.00,22,0,0,Yes
 Zone Information, SP-CORRIDOR_FLR_1 SYS-3 FLR-2 SCH-B HPLCMT-NORTH ZN,0.0,39.62,0.00,0.00,34.29,26.67,2.13,1,1,1,28.96,39.62,0.00,53.34,0.00,4.27,4.27,2428.17,TARP,TARP,569.03,91.04,91.04,0.00,8,0,0,Yes
 Zone Information, SP-CORRIDOR_FLR_2 SYS-3 FLR-3 SCH-B HPLCMT-NORTH ZN,0.0,28.96,48.77,4.27,34.29,26.67,6.40,1,1,1,28.96,39.62,-9.95E-014,53.34,4.27,8.53,4.27,2428.17,TARP,TARP,569.03,91.04,91.04,0.00,12,0,0,Yes
 Zone Information, SP-CORRIDOR_FLR_5 SYS-3 FLR-7 SCH-B HPLCMT-NORTH ZN,0.0,9.14,7.62,17.07,18.84,33.33,19.20,1,1,1,9.14,39.62,0.00,53.34,17.07,21.34,4.27,2140.75,TARP,TARP,501.68,78.04,78.04,0.00,21,0,0,Yes
 Zone Information, SP-CORRIDOR_NW_FLR_3 SYS-3 FLR-4 SCH-B HPLCMT-NORTH ZN,0.0,4.57,48.77,8.53,27.79,40.09,10.67,1,1,1,4.57,65.53,10.67,53.34,8.53,12.80,4.27,2418.26,TARP,TARP,566.71,45.52,45.52,0.00,26,0,0,Yes
 Zone Information, SP-CORRIDOR_NW_FLR_4 SYS-3 FLR-5 SCH-B HPLCMT-NORTH ZN,0.0,9.14,10.67,12.80,27.55,40.58,14.94,1,1,1,4.57,65.53,10.67,53.34,12.80,17.07,4.27,2418.26,TARP,TARP,566.71,45.52,45.52,0.00,23,0,0,Yes
 Zone Information, SP-CORRIDOR_SE_FLR_3 SYS-3 FLR-4 SCH-B HPLCMT-SOUTH ZN,0.0,39.62,4.57,8.53,42.36,13.12,10.67,1,1,1,4.57,65.53,0.00,42.67,8.53,12.80,4.27,2418.26,TARP,TARP,566.71,45.52,45.52,0.00,24,0,0,Yes
 Zone Information, SP-CORRIDOR_SE_FLR_4 SYS-3 FLR-5 SCH-B HPLCMT-SOUTH ZN,0.0,6.10,4.57,12.80,42.13,13.09,14.94,1,1,1,4.57,65.53,9.77E-015,42.67,12.80,17.07,4.27,2418.26,TARP,TARP,566.71,45.52,45.52,0.00,25,0,0,Yes
 Zone Information, SP-DINING_FLR_5 SYS-3 FLR-7 SCH-B HPLCMT-SOUTH ZN,0.0,70.10,0.00,17.07,54.87,11.74,19.20,1,1,1,39.62,70.10,0.00,22.86,17.07,21.34,4.27,2973.27,TARP,TARP,696.77,227.61,191.84,35.77,13,1,0,Yes
 Zone Information, SP-ER_EXAM1_MULT4_FLR_1 SYS-3 FLR-2 SCH-H HPLCMT-SOUTH ZN,0.0,39.62,4.57,0.00,42.67,2.29,2.13,1,4,1,39.62,45.72,1.95E-014,4.57,0.00,4.27,4.27,118.93,TARP,TARP,27.87,26.01,26.01,0.00,6,0,0,Yes
 Zone Information, SP-ER_EXAM3_MULT4_FLR_1 SYS-3 FLR-2 SCH-H HPLCMT-EAST ZN,0.0,70.10,9.14,0.00,67.06,6.86,2.13,1,4,1,64.01,70.10,4.57,9.14,0.00,4.27,4.27,118.93,TARP,TARP,27.87,19.51,19.51,0.00,6,0,0,Yes
 Zone Information, SP-ER_NURSESTN_LOBBY_FLR_1 SYS-3 FLR-2 SCH-H HPLCMT-EAST ZN,0.0,70.10,39.62,0.00,53.84,26.67,2.13,1,1,1,39.62,70.10,4.57,48.77,0.00,4.27,4.27,5272.60,TARP,TARP,1235.61,110.55,80.11,30.44,23,1,0,Yes
 Zone Information, SP-ER_TRAUMA1_FLR_1 SYS-3 FLR-2 SCH-H HPLCMT-SOUTH ZN,0.0,64.01,0.00,0.00,67.06,2.29,2.13,1,1,1,64.01,70.10,0.00,4.57,0.00,4.27,4.27,118.93,TARP,TARP,27.87,45.52,45.52,0.00,6,0,0,Yes
 Zone Information, SP-ER_TRAUMA2_FLR_1 SYS-3 FLR-2 SCH-H HPLCMT-NORTH ZN,0.0,70.10,48.77,0.00,67.06,51.05,2.13,1,1,1,64.01,70.10,48.77,53.34,0.00,4.27,4.27,118.93,TARP,TARP,27.87,45.52,45.52,0.00,6,0,0,Yes
 Zone Information, SP-ER_TRIAGE_MULT4_FLR_1 SYS-3 FLR-2 SCH-H HPLCMT-NORTH ZN,0.0,39.62,48.77,0.00,42.67,51.05,2.13,1,4,1,39.62,45.72,48.77,53.34,0.00,4.27,4.27,118.93,TARP,TARP,27.87,26.01,26.01,0.00,6,0,0,Yes
 Zone Information, SP-ICU_FLR_2 SYS-3 FLR-3 SCH-H HPLCMT-SOUTH ZN,0.0,0.00,0.00,4.27,14.21,9.14,6.40,1,1,1,0.00,28.96,0.00,21.34,4.27,8.53,4.27,2636.98,TARP,TARP,617.96,214.63,189.59,25.04,16,1,0,Yes
 Zone Information, SP-ICU_NURSESTN_LOBBY_FLR_2 SYS-3 FLR-3 SCH-H HPLCMT-CORE ZN,0.0,28.96,21.34,4.27,16.42,34.59,6.40,1,1,1,4.57,28.96,21.34,48.77,4.27,8.53,4.27,2853.77,TARP,TARP,668.77,0.00,0.00,0.00,11,0,0,Yes
 Zone Information, SP-IC_PATROOM1_MULT5_FLR_2 SYS-3 FLR-3 SCH-H HPLCMT-NORTH ZN,0.0,24.38,53.34,4.27,26.67,51.05,6.40,1,5,1,24.38,28.96,48.77,53.34,4.27,8.53,4.27,89.20,TARP,TARP,20.90,19.51,19.51,0.00,6,0,0,Yes
 Zone Information, SP-IC_PATROOM2_FLR_2 SYS-3 FLR-3 SCH-H HPLCMT-NORTH ZN,0.0,0.00,53.34,4.27,3.05,51.05,6.40,1,1,1,0.00,6.10,48.77,53.34,4.27,8.53,4.27,118.93,TARP,TARP,27.87,45.52,40.62,4.91,7,1,0,Yes
 Zone Information, SP-IC_PATROOM3_MULT6_FLR_2 SYS-3 FLR-3 SCH-H HPLCMT-WEST ZN,0.0,0.00,44.20,4.27,2.29,46.48,6.40,1,6,1,0.00,4.57,44.20,48.77,4.27,8.53,4.27,89.20,TARP,TARP,20.90,19.51,14.60,4.91,6,1,0,Yes
 Zone Information, SP-KITCHEN_FLR_5 SYS-3 FLR-7 SCH-B HPLCMT-NORTH ZN,0.0,39.62,22.86,17.07,54.86,38.10,19.20,1,1,1,39.62,70.10,22.86,53.34,17.07,21.34,4.27,3964.36,TARP,TARP,929.03,260.13,260.13,0.00,13,0,0,Yes
 Zone Information, SP-LAB_FLR_3 SYS-3 FLR-4 SCH-A HPLCMT-CORE ZN,0.0,9.14,10.67,8.53,16.93,20.39,10.67,1,1,1,9.14,28.96,10.67,33.53,8.53,12.80,4.27,1129.84,TARP,TARP,264.77,0.00,0.00,0.00,9,0,0,Yes
 Zone Information, SP-LAB_FLR_4 SYS-3 FLR-5 SCH-A HPLCMT-CORE ZN,0.0,9.14,10.67,12.80,17.13,20.01,14.94,1,1,1,9.14,28.96,10.67,33.53,12.80,17.07,4.27,1129.84,TARP,TARP,264.77,0.00,0.00,0.00,9,0,0,Yes
 Zone Information, SP-LOBBY_RECORDS_FLR_1 SYS-6 FLR-2 SCH-A HPLCMT-WEST ZN,0.0,0.00,53.34,0.00,14.43,26.63,2.13,1,1,1,0.00,28.96,0.00,53.34,0.00,4.27,4.27,6293.31,TARP,TARP,1474.81,409.68,347.00,62.67,19,1,0,Yes
 Zone Information, SP-NURSESTN_LOBBY_FLR_3 SYS-3 FLR-4 SCH-H HPLCMT-CORE ZN,0.0,9.14,42.67,8.53,31.73,25.67,10.67,1,1,1,9.14,60.96,10.67,42.67,8.53,12.80,4.27,3865.25,TARP,TARP,905.80,0.00,0.00,0.00,16,0,0,Yes
 Zone Information, SP-NURSESTN_LOBBY_FLR_4 SYS-3 FLR-5 SCH-H HPLCMT-CORE ZN,0.0,60.96,10.67,12.80,31.97,24.58,14.94,1,1,1,9.14,60.96,10.67,42.67,12.80,17.07,4.27,3865.25,TARP,TARP,905.80,0.00,0.00,0.00,15,0,0,Yes
 Zone Information, SP-NURSESTN_LOBBY_FLR_5 SYS-3 FLR-7 SCH-H HPLCMT-SOUTH ZN,0.0,39.62,22.86,17.07,27.22,20.14,19.20,1,1,1,15.24,39.62,0.00,42.67,17.07,21.34,4.27,4440.08,TARP,TARP,1040.51,104.05,104.05,0.00,10,0,0,Yes
 Zone Information, SP-OFFICE1_FLR_5 SYS-6 FLR-7 SCH-A HPLCMT-SOUTH ZN,0.0,0.00,7.62,17.07,4.57,3.81,19.20,1,1,1,0.00,9.14,0.00,7.62,17.07,21.34,4.27,297.40,TARP,TARP,69.70,71.54,53.56,17.98,9,2,0,Yes
 Zone Information, SP-OFFICE1_MULT4_FLR_1 SYS-6 FLR-2 SCH-A HPLCMT-SOUTH ZN,0.0,9.14,0.00,0.00,7.62,2.29,2.13,1,5,1,6.10,9.14,0.00,4.57,0.00,4.27,4.27,59.47,TARP,TARP,13.94,13.01,10.04,2.97,6,1,0,Yes
 Zone Information, SP-OFFICE2_MULT5_FLR_5 SYS-6 FLR-7 SCH-A HPLCMT-WEST ZN,0.0,0.00,7.62,17.07,4.57,11.43,19.20,1,5,1,0.00,9.14,7.62,15.24,17.07,21.34,4.27,297.25,TARP,TARP,69.66,32.51,24.33,8.18,9,1,0,Yes
 Zone Information, SP-OFFICE3_FLR_5 SYS-6 FLR-7 SCH-A HPLCMT-NORTH ZN,0.0,0.00,53.34,17.07,4.57,49.53,19.20,1,1,1,0.00,9.14,45.72,53.34,17.07,21.34,4.27,297.33,TARP,TARP,69.68,71.54,53.55,17.98,10,2,0,Yes
 Zone Information, SP-OFFICE4_MULT6_FLR_5 SYS-6 FLR-7 SCH-A HPLCMT-NORTH ZN,0.0,9.14,53.34,17.07,10.67,51.05,19.20,1,6,1,9.14,12.19,48.77,53.34,17.07,21.34,4.27,59.47,TARP,TARP,13.94,13.01,10.04,2.96,6,1,0,Yes
 Zone Information, SP-OR1_FLR_2 SYS-3 FLR-3 SCH-H HPLCMT-NORTH ZN,0.0,70.10,47.24,4.27,65.53,50.29,6.40,1,1,1,60.96,70.10,47.24,53.34,4.27,8.53,4.27,237.86,TARP,TARP,55.74,65.03,65.03,0.00,12,0,0,Yes
 Zone Information, SP-OR2_MULT5_FLR_2 SYS-3 FLR-3 SCH-H HPLCMT-EAST ZN,0.0,60.96,47.24,4.27,65.53,44.20,6.40,1,5,1,60.96,70.10,41.15,47.24,4.27,8.53,4.27,237.86,TARP,TARP,55.74,26.01,26.01,0.00,9,0,0,Yes
 Zone Information, SP-OR3_FLR_2 SYS-3 FLR-3 SCH-H HPLCMT-NORTH ZN,0.0,39.62,47.24,4.27,44.20,50.29,6.40,1,1,1,39.62,48.77,47.24,53.34,4.27,8.53,4.27,237.86,TARP,TARP,55.74,39.02,39.02,0.00,10,0,0,Yes
 Zone Information, SP-OR4_FLR_2 SYS-3 FLR-3 SCH-H HPLCMT-CORE ZN,0.0,39.62,47.24,4.27,44.20,35.05,6.40,1,1,1,39.62,48.77,22.86,47.24,4.27,8.53,4.27,951.45,TARP,TARP,222.97,0.00,0.00,0.00,7,0,0,Yes
 Zone Information, SP-OR_NURSESTN_LOBBY_FLR_2 SYS-3 FLR-3 SCH-H HPLCMT-SOUTH ZN,0.0,70.10,0.00,4.27,53.96,21.28,6.40,1,1,1,39.62,70.10,0.00,53.34,4.27,8.53,4.27,4321.15,TARP,TARP,1012.64,253.63,217.86,35.77,31,1,0,Yes
 Zone Information, SP-PATROOM1_MULT10_FLR_3 SYS-3 FLR-4 SCH-H HPLCMT-SOUTH ZN,0.0,44.20,0.00,8.53,41.91,2.29,10.67,1,10,1,39.62,44.20,0.00,4.57,8.53,12.80,4.27,89.20,TARP,TARP,20.90,19.51,14.61,4.90,6,1,0,Yes
 Zone Information, SP-PATROOM1_MULT10_FLR_4 SYS-3 FLR-5 SCH-H HPLCMT-SOUTH ZN,0.0,44.20,0.00,12.80,41.91,2.29,14.94,1,10,1,39.62,44.20,0.00,4.57,12.80,17.07,4.27,89.20,TARP,TARP,20.90,19.51,14.61,4.90,6,1,0,Yes
 Zone Information, SP-PATROOM2_FLR_3 SYS-3 FLR-4 SCH-H HPLCMT-SOUTH ZN,0.0,70.10,4.57,8.53,66.29,2.29,10.67,1,1,1,62.48,70.10,0.00,4.57,8.53,12.80,4.27,148.66,TARP,TARP,34.84,52.03,38.94,13.08,7,2,0,Yes
 Zone Information, SP-PATROOM2_FLR_4 SYS-3 FLR-5 SCH-H HPLCMT-SOUTH ZN,0.0,70.10,4.57,12.80,66.29,2.29,14.94,1,1,1,62.48,70.10,9.77E-015,4.57,12.80,17.07,4.27,148.66,TARP,TARP,34.84,52.03,38.94,13.08,7,2,0,Yes
 Zone Information, SP-PATROOM3_MULT10_FLR_3 SYS-3 FLR-4 SCH-H HPLCMT-EAST ZN,0.0,70.10,8.99,8.53,67.82,6.78,10.67,1,10,1,65.53,70.10,4.57,8.99,8.53,12.80,4.27,86.23,TARP,TARP,20.21,18.86,14.12,4.74,6,1,0,Yes
 Zone Information, SP-PATROOM3_MULT10_FLR_4 SYS-3 FLR-5 SCH-H HPLCMT-EAST ZN,0.0,70.10,8.99,12.80,67.82,6.78,14.94,1,10,1,65.53,70.10,4.57,8.99,12.80,17.07,4.27,86.23,TARP,TARP,20.21,18.86,14.12,4.74,6,1,0,Yes
 Zone Information, SP-PATROOM4_FLR_3 SYS-3 FLR-4 SCH-H HPLCMT-NORTH ZN,0.0,62.48,53.34,8.53,66.29,51.05,10.67,1,1,1,62.48,70.10,48.77,53.34,8.53,12.80,4.27,148.66,TARP,TARP,34.84,52.03,38.94,13.08,7,2,0,Yes
 Zone Information, SP-PATROOM4_FLR_4 SYS-3 FLR-5 SCH-H HPLCMT-NORTH ZN,0.0,62.48,53.34,12.80,66.29,51.05,14.94,1,1,1,62.48,70.10,48.77,53.34,12.80,17.07,4.27,148.66,TARP,TARP,34.84,52.03,38.94,13.08,7,2,0,Yes
 Zone Information, SP-PATROOM5_MULT10_FLR_3 SYS-3 FLR-4 SCH-H HPLCMT-NORTH ZN,0.0,39.62,53.34,8.53,41.91,51.05,10.67,1,10,1,39.62,44.20,48.77,53.34,8.53,12.80,4.27,89.20,TARP,TARP,20.90,19.51,14.60,4.91,6,1,0,Yes
 Zone Information, SP-PATROOM5_MULT10_FLR_4 SYS-3 FLR-5 SCH-H HPLCMT-NORTH ZN,0.0,39.62,53.34,12.80,41.91,51.05,14.94,1,10,1,39.62,44.20,48.77,53.34,12.80,17.07,4.27,89.20,TARP,TARP,20.90,19.51,14.60,4.91,6,1,0,Yes
 Zone Information, SP-PATROOM6_FLR_3 SYS-3 FLR-4 SCH-H HPLCMT-SOUTH ZN,0.0,6.10,0.00,8.53,3.05,2.29,10.67,1,1,1,0.00,6.10,0.00,4.57,8.53,12.80,4.27,118.93,TARP,TARP,27.87,45.52,34.07,11.45,7,2,0,Yes
 Zone Information, SP-PATROOM6_FLR_4 SYS-3 FLR-5 SCH-H HPLCMT-SOUTH ZN,0.0,6.10,0.00,12.80,3.05,2.29,14.94,1,1,1,0.00,6.10,0.00,4.57,12.80,17.07,4.27,118.93,TARP,TARP,27.87,45.52,34.08,11.45,7,2,0,Yes
 Zone Information, SP-PATROOM7_MULT10_FLR_3 SYS-3 FLR-4 SCH-H HPLCMT-WEST ZN,0.0,0.00,4.57,8.53,2.29,6.78,10.67,1,10,1,0.00,4.57,4.57,8.99,8.53,12.80,4.27,86.23,TARP,TARP,20.21,18.86,14.11,4.75,6,1,0,Yes
 Zone Information, SP-PATROOM7_MULT10_FLR_4 SYS-3 FLR-5 SCH-H HPLCMT-WEST ZN,0.0,0.00,4.57,12.80,2.29,6.78,14.94,1,10,1,0.00,4.57,4.57,8.99,12.80,17.07,4.27,86.23,TARP,TARP,20.21,18.86,14.12,4.74,7,1,0,Yes
 Zone Information, SP-PATROOM8_FLR_3 SYS-3 FLR-4 SCH-H HPLCMT-NORTH ZN,0.0,0.00,53.34,8.53,3.05,51.05,10.67,1,1,1,0.00,6.10,48.77,53.34,8.53,12.80,4.27,118.93,TARP,TARP,27.87,45.52,34.07,11.45,7,2,0,Yes
 Zone Information, SP-PATROOM8_FLR_4 SYS-3 FLR-5 SCH-H HPLCMT-NORTH ZN,0.0,0.00,53.34,12.80,3.05,51.05,14.94,1,1,1,0.00,6.10,48.77,53.34,12.80,17.07,4.27,118.93,TARP,TARP,27.87,45.52,34.06,11.46,7,2,0,Yes
 Zone Information, SP-PHYSTHERAPY_FLR_3 SYS-3 FLR-4 SCH-C HPLCMT-CORE ZN,0.0,39.62,42.67,8.53,49.36,30.81,10.67,1,1,1,39.62,60.96,19.81,42.67,8.53,12.80,4.27,2081.29,TARP,TARP,487.74,0.00,0.00,0.00,7,0,0,Yes
 Zone Information, SP-RADIOLOGY_FLR_4 SYS-3 FLR-5 SCH-H HPLCMT-CORE ZN,0.0,60.96,42.67,12.80,50.29,31.24,14.94,1,1,1,39.62,60.96,19.81,42.67,12.80,17.07,4.27,2081.29,TARP,TARP,487.74,0.00,0.00,0.00,7,0,0,Yes
! <Zone Internal Gains Nominal>,Zone Name, Floor Area {m2},# Occupants,Area per Occupant {m2/person},Occupant per Area {person/m2},Interior Lighting {W/m2},Electric Load {W/m2},Gas Load {W/m2},Other Load {W/m2},Hot Water Eq {W/m2},Steam Equipment {W/m2},Sum Loads per Area {W/m2},Outdoor Controlled Baseboard Heat
 Zone Internal Gains Nominal, SP-BASEMENT SYS-3 FLR-1 SCH-A HPLCMT-NORTH ZN,3739.35,187.0,19.993,5.002E-002,19.507,10.004,0.000,0.000,0.000,0.000,29.511,No
 Zone Internal Gains Nominal, SP-CORRIDOR_FLR_1 SYS-3 FLR-2 SCH-B HPLCMT-NORTH ZN,569.03,5.7,99.964,1.000E-002,10.704,0.000,0.000,0.000,0.000,0.000,10.704,No
 Zone Internal Gains Nominal, SP-CORRIDOR_FLR_2 SYS-3 FLR-3 SCH-B HPLCMT-NORTH ZN,569.03,5.7,99.964,1.000E-002,10.704,0.000,0.000,0.000,0.000,0.000,10.704,No
 Zone Internal Gains Nominal, SP-CORRIDOR_FLR_5 SYS-3 FLR-7 SCH-B HPLCMT-NORTH ZN,501.68,5.0,99.964,1.000E-002,10.704,0.000,0.000,0.000,0.000,0.000,10.704,No
 Zone Internal Gains Nominal, SP-CORRIDOR_NW_FLR_3 SYS-3 FLR-4 SCH-B HPLCMT-NORTH ZN,566.71,5.7,99.964,1.000E-002,10.704,0.000,0.000,0.000,0.000,0.000,10.704,No
 Zone Internal Gains Nominal, SP-CORRIDOR_NW_FLR_4 SYS-3 FLR-5 SCH-B HPLCMT-NORTH ZN,566.71,5.7,99.964,1.000E-002,10.704,0.000,0.000,0.000,0.000,0.000,10.704,No
 Zone Internal Gains Nominal, SP-CORRIDOR_SE_FLR_3 SYS-3 FLR-4 SCH-B HPLCMT-SOUTH ZN,566.71,5.7,99.964,1.000E-002,10.704,0.000,0.000,0.000,0.000,0.000,10.704,No
 Zone Internal Gains Nominal, SP-CORRIDOR_SE_FLR_4 SYS-3 FLR-5 SCH-B HPLCMT-SOUTH ZN,566.71,5.7,99.964,1.000E-002,10.704,0.000,0.000,0.000,0.000,0.000,10.704,No
 Zone Internal Gains Nominal, SP-DINING_FLR_5 SYS-3 FLR-7 SCH-B HPLCMT-SOUTH ZN,696.77,69.7,9.996,0.100,11.604,1.000,0.000,0.000,0.000,0.000,12.605,No
 Zone Internal Gains Nominal, SP-ER_EXAM1_MULT4_FLR_1 SYS-3 FLR-2 SCH-H HPLCMT-SOUTH ZN,27.87,1.4,19.993,5.002E-002,26.810,10.004,0.000,0.000,0.000,0.000,36.813,No
 Zone Internal Gains Nominal, SP-ER_EXAM3_MULT4_FLR_1 SYS-3 FLR-2 SCH-H HPLCMT-EAST ZN,27.87,1.4,19.993,5.002E-002,26.810,10.004,0.000,0.000,0.000,0.000,36.813,No
 Zone Internal Gains Nominal, SP-ER_NURSESTN_LOBBY_FLR_1 SYS-3 FLR-2 SCH-H HPLCMT-EAST ZN,1235.61,61.8,19.993,5.002E-002,7.603,2.501,0.000,0.000,0.000,0.000,10.104,No
 Zone Internal Gains Nominal, SP-ER_TRAUMA1_FLR_1 SYS-3 FLR-2 SCH-H HPLCMT-SOUTH ZN,27.87,1.4,19.993,5.002E-002,26.810,10.004,0.000,0.000,0.000,0.000,36.813,No
 Zone Internal Gains Nominal, SP-ER_TRAUMA2_FLR_1 SYS-3 FLR-2 SCH-H HPLCMT-NORTH ZN,27.87,1.4,19.993,5.002E-002,26.810,10.004,0.000,0.000,0.000,0.000,36.813,No
 Zone Internal Gains Nominal, SP-ER_TRIAGE_MULT4_FLR_1 SYS-3 FLR-2 SCH-H HPLCMT-NORTH ZN,27.87,1.4,19.993,5.002E-002,26.810,10.004,0.000,0.000,0.000,0.000,36.813,No
 Zone Internal Gains Nominal, SP-ICU_FLR_2 SYS-3 FLR-3 SCH-H HPLCMT-SOUTH ZN,617.96,30.9,19.993,5.002E-002,12.405,10.004,0.000,0.000,0.000,0.000,22.408,No
 Zone Internal Gains Nominal, SP-ICU_NURSESTN_LOBBY_FLR_2 SYS-3 FLR-3 SCH-H HPLCMT-CORE ZN,668.77,33.5,19.993,5.002E-002,7.603,2.501,0.000,0.000,0.000,0.000,10.104,No
 Zone Internal Gains Nominal, SP-IC_PATROOM1_MULT5_FLR_2 SYS-3 FLR-3 SCH-H HPLCMT-NORTH ZN,20.90,1.0,19.993,5.002E-002,6.702,10.004,0.000,0.000,0.000,0.000,16.706,No
 Zone Internal Gains Nominal, SP-IC_PATROOM2_FLR_2 SYS-3 FLR-3 SCH-H HPLCMT-NORTH ZN,27.87,1.4,19.993,5.002E-002,6.702,10.004,0.000,0.000,0.000,0.000,16.706,No
 Zone Internal Gains Nominal, SP-IC_PATROOM3_MULT6_FLR_2 SYS-3 FLR-3 SCH-H HPLCMT-WEST ZN,20.90,1.0,19.993,5.002E-002,6.702,10.004,0.000,0.000,0.000,0.000,16.706,No
 Zone Internal Gains Nominal, SP-KITCHEN_FLR_5 SYS-3 FLR-7 SCH-B HPLCMT-NORTH ZN,929.03,46.5,19.993,5.002E-002,13.105,10.004,0.000,0.000,0.000,0.000,23.108,No
 Zone Internal Gains Nominal, SP-LAB_FLR_3 SYS-3 FLR-4 SCH-A HPLCMT-CORE ZN,264.77,13.2,19.993,5.002E-002,19.507,10.004,0.000,0.000,0.000,0.000,29.511,No
 Zone Internal Gains Nominal, SP-LAB_FLR_4 SYS-3 FLR-5 SCH-A HPLCMT-CORE ZN,264.77,13.2,19.993,5.002E-002,19.507,10.004,0.000,0.000,0.000,0.000,29.511,No
 Zone Internal Gains Nominal, SP-LOBBY_RECORDS_FLR_1 SYS-6 FLR-2 SCH-A HPLCMT-WEST ZN,1474.81,73.8,19.993,5.002E-002,12.004,7.503,0.000,0.000,0.000,0.000,19.507,No
 Zone Internal Gains Nominal, SP-NURSESTN_LOBBY_FLR_3 SYS-3 FLR-4 SCH-H HPLCMT-CORE ZN,905.80,45.3,19.993,5.002E-002,7.603,2.501,0.000,0.000,0.000,0.000,10.104,No
 Zone Internal Gains Nominal, SP-NURSESTN_LOBBY_FLR_4 SYS-3 FLR-5 SCH-H HPLCMT-CORE ZN,905.80,45.3,19.993,5.002E-002,7.603,2.501,0.000,0.000,0.000,0.000,10.104,No
 Zone Internal Gains Nominal, SP-NURSESTN_LOBBY_FLR_5 SYS-3 FLR-7 SCH-H HPLCMT-SOUTH ZN,1040.51,52.0,19.993,5.002E-002,7.603,2.501,0.000,0.000,0.000,0.000,10.104,No
 Zone Internal Gains Nominal, SP-OFFICE1_FLR_5 SYS-6 FLR-7 SCH-A HPLCMT-SOUTH ZN,69.70,3.5,19.993,5.002E-002,12.004,7.503,0.000,0.000,0.000,0.000,19.507,No
 Zone Internal Gains Nominal, SP-OFFICE1_MULT4_FLR_1 SYS-6 FLR-2 SCH-A HPLCMT-SOUTH ZN,13.94,0.7,19.993,5.002E-002,12.004,7.503,0.000,0.000,0.000,0.000,19.507,No
 Zone Internal Gains Nominal, SP-OFFICE2_MULT5_FLR_5 SYS-6 FLR-7 SCH-A HPLCMT-WEST ZN,69.66,3.5,19.993,5.002E-002,12.004,7.503,0.000,0.000,0.000,0.000,19.507,No
 Zone Internal Gains Nominal, SP-OFFICE3_FLR_5 SYS-6 FLR-7 SCH-A HPLCMT-NORTH ZN,69.68,3.5,19.993,5.002E-002,12.004,7.503,0.000,0.000,0.000,0.000,19.507,No
 Zone Internal Gains Nominal, SP-OFFICE4_MULT6_FLR_5 SYS-6 FLR-7 SCH-A HPLCMT-NORTH ZN,13.94,0.7,19.993,5.002E-002,12.004,7.503,0.000,0.000,0.000,0.000,19.507,No
 Zone Internal Gains Nominal, SP-OR1_FLR_2 SYS-3 FLR-3 SCH-H HPLCMT-NORTH ZN,55.74,2.8,19.993,5.002E-002,26.810,10.004,0.000,0.000,0.000,0.000,36.813,No
 Zone Internal Gains Nominal, SP-OR2_MULT5_FLR_2 SYS-3 FLR-3 SCH-H HPLCMT-EAST ZN,55.74,2.8,19.993,5.002E-002,26.810,10.004,0.000,0.000,0.000,0.000,36.813,No
 Zone Internal Gains Nominal, SP-OR3_FLR_2 SYS-3 FLR-3 SCH-H HPLCMT-NORTH ZN,55.74,2.8,19.993,5.002E-002,26.810,10.004,0.000,0.000,0.000,0.000,36.813,No
 Zone Internal Gains Nominal, SP-OR4_FLR_2 SYS-3 FLR-3 SCH-H HPLCMT-CORE ZN,222.97,11.2,19.993,5.002E-002,26.810,10.004,0.000,0.000,0.000,0.000,36.813,No
 Zone Internal Gains Nominal, SP-OR_NURSESTN_LOBBY_FLR_2 SYS-3 FLR-3 SCH-H HPLCMT-SOUTH ZN,1012.64,50.7,19.993,5.002E-002,7.603,2.501,0.000,0.000,0.000,0.000,10.104,No
 Zone Internal Gains Nominal, SP-PATROOM1_MULT10_FLR_3 SYS-3 FLR-4 SCH-H HPLCMT-SOUTH ZN,20.90,1.0,19.993,5.002E-002,6.702,10.004,0.000,0.000,0.000,0.000,16.706,No
 Zone Internal Gains Nominal, SP-PATROOM1_MULT10_FLR_4 SYS-3 FLR-5 SCH-H HPLCMT-SOUTH ZN,20.90,1.0,19.993,5.002E-002,6.702,10.004,0.000,0.000,0.000,0.000,16.706,No
 Zone Internal Gains Nominal, SP-PATROOM2_FLR_3 SYS-3 FLR-4 SCH-H HPLCMT-SOUTH ZN,34.84,1.7,19.993,5.002E-002,6.702,10.004,0.000,0.000,0.000,0.000,16.706,No
 Zone Internal Gains Nominal, SP-PATROOM2_FLR_4 SYS-3 FLR-5 SCH-H HPLCMT-SOUTH ZN,34.84,1.7,19.993,5.002E-002,6.702,10.004,0.000,0.000,0.000,0.000,16.706,No
 Zone Internal Gains Nominal, SP-PATROOM3_MULT10_FLR_3 SYS-3 FLR-4 SCH-H HPLCMT-EAST ZN,20.21,1.0,19.993,5.002E-002,6.702,10.004,0.000,0.000,0.000,0.000,16.706,No
 Zone Internal Gains Nominal, SP-PATROOM3_MULT10_FLR_4 SYS-3 FLR-5 SCH-H HPLCMT-EAST ZN,20.21,1.0,19.993,5.002E-002,6.702,10.004,0.000,0.000,0.000,0.000,16.706,No
 Zone Internal Gains Nominal, SP-PATROOM4_FLR_3 SYS-3 FLR-4 SCH-H HPLCMT-NORTH ZN,34.84,1.7,19.993,5.002E-002,6.702,10.004,0.000,0.000,0.000,0.000,16.706,No
 Zone Internal Gains Nominal, SP-PATROOM4_FLR_4 SYS-3 FLR-5 SCH-H HPLCMT-NORTH ZN,34.84,1.7,19.993,5.002E-002,6.702,10.004,0.000,0.000,0.000,0.000,16.706,No
 Zone Internal Gains Nominal, SP-PATROOM5_MULT10_FLR_3 SYS-3 FLR-4 SCH-H HPLCMT-NORTH ZN,20.90,1.0,19.993,5.002E-002,6.702,10.004,0.000,0.000,0.000,0.000,16.706,No
 Zone Internal Gains Nominal, SP-PATROOM5_MULT10_FLR_4 SYS-3 FLR-5 SCH-H HPLCMT-NORTH ZN,20.90,1.0,19.993,5.002E-002,6.702,10.004,0.000,0.000,0.000,0.000,16.706,No
 Zone Internal Gains Nominal, SP-PATROOM6_FLR_3 SYS-3 FLR-4 SCH-H HPLCMT-SOUTH ZN,27.87,1.4,19.993,5.002E-002,6.702,10.004,0.000,0.000,0.000,0.000,16.706,No
 Zone Internal Gains Nominal, SP-PATROOM6_FLR_4 SYS-3 FLR-5 SCH-H HPLCMT-SOUTH ZN,27.87,1.4,19.993,5.002E-002,6.702,10.004,0.000,0.000,0.000,0.000,16.706,No
 Zone Internal Gains Nominal, SP-PATROOM7_MULT10_FLR_3 SYS-3 FLR-4 SCH-H HPLCMT-WEST ZN,20.21,1.0,19.993,5.002E-002,6.702,10.004,0.000,0.000,0.000,0.000,16.706,No
 Zone Internal Gains Nominal, SP-PATROOM7_MULT10_FLR_4 SYS-3 FLR-5 SCH-H HPLCMT-WEST ZN,20.21,1.0,19.993,5.002E-002,6.702,10.004,0.000,0.000,0.000,0.000,16.706,No
 Zone Internal Gains Nominal, SP-PATROOM8_FLR_3 SYS-3 FLR-4 SCH-H HPLCMT-NORTH ZN,27.87,1.4,19.993,5.002E-002,6.702,10.004,0.000,0.000,0.000,0.000,16.706,No
 Zone Internal Gains Nominal, SP-PATROOM8_FLR_4 SYS-3 FLR-5 SCH-H HPLCMT-NORTH ZN,27.87,1.4,19.993,5.002E-002,6.702,10.004,0.000,0.000,0.000,0.000,16.706,No
 Zone Internal Gains Nominal, SP-PHYSTHERAPY_FLR_3 SYS-3 FLR-4 SCH-C HPLCMT-CORE ZN,487.74,24.4,19.993,5.002E-002,9.904,10.004,0.000,0.000,0.000,0.000,19.907,No
 Zone Internal Gains Nominal, SP-RADIOLOGY_FLR_4 SYS-3 FLR-5 SCH-H HPLCMT-CORE ZN,487.74,24.4,19.993,5.002E-002,16.306,10.004,0.000,0.000,0.000,0.000,26.310,No
! <People Internal Gains Nominal>,Name,Schedule Name,Zone Name,Zone Floor Area {m2},# Zone Occupants,Number of People {},People/Floor Area {person/m2},Floor Area per person {m2/person},Fraction Radiant,Fraction Convected,Sensible Fraction Calculation,Activity level,ASHRAE 55 Warnings,Carbon Dioxide Generation Rate,Nominal Minimum Number of People,Nominal Maximum Number of People
 People Internal Gains Nominal, SP-CORRIDOR_FLR_1 SYS-3 FLR-2 SCH-B HPLCMT-NORTH ZN SPACE FUNCTION CORRIDOR/TRANSITION AREA - HOSPITAL-SCH-B PEOPLE,NECB-B-OCCUPANCY,SP-CORRIDOR_FLR_1 SYS-3 FLR-2 SCH-B HPLCMT-NORTH ZN,569.03,5.7,5.7,1.000E-002,99.964,0.300,0.700,AutoCalculate,NECB-ACTIVITY,No,3.8200E-008,0,5
 People Internal Gains Nominal, SP-CORRIDOR_FLR_2 SYS-3 FLR-3 SCH-B HPLCMT-NORTH ZN SPACE FUNCTION CORRIDOR/TRANSITION AREA - HOSPITAL-SCH-B PEOPLE,NECB-B-OCCUPANCY,SP-CORRIDOR_FLR_2 SYS-3 FLR-3 SCH-B HPLCMT-NORTH ZN,569.03,5.7,5.7,1.000E-002,99.964,0.300,0.700,AutoCalculate,NECB-ACTIVITY,No,3.8200E-008,0,5
 People Internal Gains Nominal, SP-CORRIDOR_FLR_5 SYS-3 FLR-7 SCH-B HPLCMT-NORTH ZN SPACE FUNCTION CORRIDOR/TRANSITION AREA - HOSPITAL-SCH-B PEOPLE,NECB-B-OCCUPANCY,SP-CORRIDOR_FLR_5 SYS-3 FLR-7 SCH-B HPLCMT-NORTH ZN,501.68,5.0,5.0,1.000E-002,99.964,0.300,0.700,AutoCalculate,NECB-ACTIVITY,No,3.8200E-008,0,5
 People Internal Gains Nominal, SP-CORRIDOR_NW_FLR_3 SYS-3 FLR-4 SCH-B HPLCMT-NORTH ZN SPACE FUNCTION CORRIDOR/TRANSITION AREA - HOSPITAL-SCH-B PEOPLE,NECB-B-OCCUPANCY,SP-CORRIDOR_NW_FLR_3 SYS-3 FLR-4 SCH-B HPLCMT-NORTH ZN,566.71,5.7,5.7,1.000E-002,99.964,0.300,0.700,AutoCalculate,NECB-ACTIVITY,No,3.8200E-008,0,5
 People Internal Gains Nominal, SP-CORRIDOR_NW_FLR_4 SYS-3 FLR-5 SCH-B HPLCMT-NORTH ZN SPACE FUNCTION CORRIDOR/TRANSITION AREA - HOSPITAL-SCH-B PEOPLE,NECB-B-OCCUPANCY,SP-CORRIDOR_NW_FLR_4 SYS-3 FLR-5 SCH-B HPLCMT-NORTH ZN,566.71,5.7,5.7,1.000E-002,99.964,0.300,0.700,AutoCalculate,NECB-ACTIVITY,No,3.8200E-008,0,5
 People Internal Gains Nominal, SP-CORRIDOR_SE_FLR_3 SYS-3 FLR-4 SCH-B HPLCMT-SOUTH ZN SPACE FUNCTION CORRIDOR/TRANSITION AREA - HOSPITAL-SCH-B PEOPLE,NECB-B-OCCUPANCY,SP-CORRIDOR_SE_FLR_3 SYS-3 FLR-4 SCH-B HPLCMT-SOUTH ZN,566.71,5.7,5.7,1.000E-002,99.964,0.300,0.700,AutoCalculate,NECB-ACTIVITY,No,3.8200E-008,0,5
 People Internal Gains Nominal, SP-CORRIDOR_SE_FLR_4 SYS-3 FLR-5 SCH-B HPLCMT-SOUTH ZN SPACE FUNCTION CORRIDOR/TRANSITION AREA - HOSPITAL-SCH-B PEOPLE,NECB-B-OCCUPANCY,SP-CORRIDOR_SE_FLR_4 SYS-3 FLR-5 SCH-B HPLCMT-SOUTH ZN,566.71,5.7,5.7,1.000E-002,99.964,0.300,0.700,AutoCalculate,NECB-ACTIVITY,No,3.8200E-008,0,5
 People Internal Gains Nominal, SP-DINING_FLR_5 SYS-3 FLR-7 SCH-B HPLCMT-SOUTH ZN SPACE FUNCTION DINING AREA - BAR LOUNGE/LEISURE DINING PEOPLE,NECB-B-OCCUPANCY,SP-DINING_FLR_5 SYS-3 FLR-7 SCH-B HPLCMT-SOUTH ZN,696.77,69.7,69.7,0.100,9.996,0.300,0.700,AutoCalculate,NECB-ACTIVITY,No,3.8200E-008,0,63
 People Internal Gains Nominal, SP-KITCHEN_FLR_5 SYS-3 FLR-7 SCH-B HPLCMT-NORTH ZN SPACE FUNCTION FOOD PREPARATION AREA PEOPLE,NECB-B-OCCUPANCY,SP-KITCHEN_FLR_5 SYS-3 FLR-7 SCH-B HPLCMT-NORTH ZN,929.03,46.5,46.5,5.002E-002,19.993,0.300,0.700,AutoCalculate,NECB-ACTIVITY,No,3.8200E-008,0,42
 People Internal Gains Nominal, SP-RADIOLOGY_FLR_4 SYS-3 FLR-5 SCH-H HPLCMT-CORE ZN SPACE FUNCTION HEALTH CARE FACILITY IMAGING ROOM PEOPLE,NECB-H-OCCUPANCY,SP-RADIOLOGY_FLR_4 SYS-3 FLR-5 SCH-H HPLCMT-CORE ZN,487.74,24.4,24.4,5.002E-002,19.993,0.300,0.700,AutoCalculate,NECB-ACTIVITY,No,3.8200E-008,22,22
 People Internal Gains Nominal, SP-ER_NURSESTN_LOBBY_FLR_1 SYS-3 FLR-2 SCH-H HPLCMT-EAST ZN SPACE FUNCTION HEALTH CARE FACILITY NURSES STATION PEOPLE,NECB-H-OCCUPANCY,SP-ER_NURSESTN_LOBBY_FLR_1 SYS-3 FLR-2 SCH-H HPLCMT-EAST ZN,1235.61,61.8,61.8,5.002E-002,19.993,0.300,0.700,AutoCalculate,NECB-ACTIVITY,No,3.8200E-008,56,56
 People Internal Gains Nominal, SP-ICU_NURSESTN_LOBBY_FLR_2 SYS-3 FLR-3 SCH-H HPLCMT-CORE ZN SPACE FUNCTION HEALTH CARE FACILITY NURSES STATION PEOPLE,NECB-H-OCCUPANCY,SP-ICU_NURSESTN_LOBBY_FLR_2 SYS-3 FLR-3 SCH-H HPLCMT-CORE ZN,668.77,33.5,33.5,5.002E-002,19.993,0.300,0.700,AutoCalculate,NECB-ACTIVITY,No,3.8200E-008,30,30
 People Internal Gains Nominal, SP-NURSESTN_LOBBY_FLR_3 SYS-3 FLR-4 SCH-H HPLCMT-CORE ZN SPACE FUNCTION HEALTH CARE FACILITY NURSES STATION PEOPLE,NECB-H-OCCUPANCY,SP-NURSESTN_LOBBY_FLR_3 SYS-3 FLR-4 SCH-H HPLCMT-CORE ZN,905.80,45.3,45.3,5.002E-002,19.993,0.300,0.700,AutoCalculate,NECB-ACTIVITY,No,3.8200E-008,41,41
 People Internal Gains Nominal, SP-NURSESTN_LOBBY_FLR_4 SYS-3 FLR-5 SCH-H HPLCMT-CORE ZN SPACE FUNCTION HEALTH CARE FACILITY NURSES STATION PEOPLE,NECB-H-OCCUPANCY,SP-NURSESTN_LOBBY_FLR_4 SYS-3 FLR-5 SCH-H HPLCMT-CORE ZN,905.80,45.3,45.3,5.002E-002,19.993,0.300,0.700,AutoCalculate,NECB-ACTIVITY,No,3.8200E-008,41,41
 People Internal Gains Nominal, SP-NURSESTN_LOBBY_FLR_5 SYS-3 FLR-7 SCH-H HPLCMT-SOUTH ZN SPACE FUNCTION HEALTH CARE FACILITY NURSES STATION PEOPLE,NECB-H-OCCUPANCY,SP-NURSESTN_LOBBY_FLR_5 SYS-3 FLR-7 SCH-H HPLCMT-SOUTH ZN,1040.51,52.0,52.0,5.002E-002,19.993,0.300,0.700,AutoCalculate,NECB-ACTIVITY,No,3.8200E-008,47,47
 People Internal Gains Nominal, SP-OR_NURSESTN_LOBBY_FLR_2 SYS-3 FLR-3 SCH-H HPLCMT-SOUTH ZN SPACE FUNCTION HEALTH CARE FACILITY NURSES STATION PEOPLE,NECB-H-OCCUPANCY,SP-OR_NURSESTN_LOBBY_FLR_2 SYS-3 FLR-3 SCH-H HPLCMT-SOUTH ZN,1012.64,50.7,50.7,5.002E-002,19.993,0.300,0.700,AutoCalculate,NECB-ACTIVITY,No,3.8200E-008,46,46
 People Internal Gains Nominal, SP-ER_EXAM1_MULT4_FLR_1 SYS-3 FLR-2 SCH-H HPLCMT-SOUTH ZN SPACE FUNCTION HEALTH CARE FACILITY OPERATING ROOM PEOPLE,NECB-H-OCCUPANCY,SP-ER_EXAM1_MULT4_FLR_1 SYS-3 FLR-2 SCH-H HPLCMT-SOUTH ZN,27.87,1.4,1.4,5.002E-002,19.993,0.300,0.700,AutoCalculate,NECB-ACTIVITY,No,3.8200E-008,1,1
 People Internal Gains Nominal, SP-ER_EXAM3_MULT4_FLR_1 SYS-3 FLR-2 SCH-H HPLCMT-EAST ZN SPACE FUNCTION HEALTH CARE FACILITY OPERATING ROOM PEOPLE,NECB-H-OCCUPANCY,SP-ER_EXAM3_MULT4_FLR_1 SYS-3 FLR-2 SCH-H HPLCMT-EAST ZN,27.87,1.4,1.4,5.002E-002,19.993,0.300,0.700,AutoCalculate,NECB-ACTIVITY,No,3.8200E-008,1,1
 People Internal Gains Nominal, SP-ER_TRAUMA1_FLR_1 SYS-3 FLR-2 SCH-H HPLCMT-SOUTH ZN SPACE FUNCTION HEALTH CARE FACILITY OPERATING ROOM PEOPLE,NECB-H-OCCUPANCY,SP-ER_TRAUMA1_FLR_1 SYS-3 FLR-2 SCH-H HPLCMT-SOUTH ZN,27.87,1.4,1.4,5.002E-002,19.993,0.300,0.700,AutoCalculate,NECB-ACTIVITY,No,3.8200E-008,1,1
 People Internal Gains Nominal, SP-ER_TRAUMA2_FLR_1 SYS-3 FLR-2 SCH-H HPLCMT-NORTH ZN SPACE FUNCTION HEALTH CARE FACILITY OPERATING ROOM PEOPLE,NECB-H-OCCUPANCY,SP-ER_TRAUMA2_FLR_1 SYS-3 FLR-2 SCH-H HPLCMT-NORTH ZN,27.87,1.4,1.4,5.002E-002,19.993,0.300,0.700,AutoCalculate,NECB-ACTIVITY,No,3.8200E-008,1,1
 People Internal Gains Nominal, SP-ER_TRIAGE_MULT4_FLR_1 SYS-3 FLR-2 SCH-H HPLCMT-NORTH ZN SPACE FUNCTION HEALTH CARE FACILITY OPERATING ROOM PEOPLE,NECB-H-OCCUPANCY,SP-ER_TRIAGE_MULT4_FLR_1 SYS-3 FLR-2 SCH-H HPLCMT-NORTH ZN,27.87,1.4,1.4,5.002E-002,19.993,0.300,0.700,AutoCalculate,NECB-ACTIVITY,No,3.8200E-008,1,1
 People Internal Gains Nominal, SP-OR1_FLR_2 SYS-3 FLR-3 SCH-H HPLCMT-NORTH ZN SPACE FUNCTION HEALTH CARE FACILITY OPERATING ROOM PEOPLE,NECB-H-OCCUPANCY,SP-OR1_FLR_2 SYS-3 FLR-3 SCH-H HPLCMT-NORTH ZN,55.74,2.8,2.8,5.002E-002,19.993,0.300,0.700,AutoCalculate,NECB-ACTIVITY,No,3.8200E-008,3,3
 People Internal Gains Nominal, SP-OR2_MULT5_FLR_2 SYS-3 FLR-3 SCH-H HPLCMT-EAST ZN SPACE FUNCTION HEALTH CARE FACILITY OPERATING ROOM PEOPLE,NECB-H-OCCUPANCY,SP-OR2_MULT5_FLR_2 SYS-3 FLR-3 SCH-H HPLCMT-EAST ZN,55.74,2.8,2.8,5.002E-002,19.993,0.300,0.700,AutoCalculate,NECB-ACTIVITY,No,3.8200E-008,3,3
 People Internal Gains Nominal, SP-OR3_FLR_2 SYS-3 FLR-3 SCH-H HPLCMT-NORTH ZN SPACE FUNCTION HEALTH CARE FACILITY OPERATING ROOM PEOPLE,NECB-H-OCCUPANCY,SP-OR3_FLR_2 SYS-3 FLR-3 SCH-H HPLCMT-NORTH ZN,55.74,2.8,2.8,5.002E-002,19.993,0.300,0.700,AutoCalculate,NECB-ACTIVITY,No,3.8200E-008,3,3
 People Internal Gains Nominal, SP-OR4_FLR_2 SYS-3 FLR-3 SCH-H HPLCMT-CORE ZN SPACE FUNCTION HEALTH CARE FACILITY OPERATING ROOM PEOPLE,NECB-H-OCCUPANCY,SP-OR4_FLR_2 SYS-3 FLR-3 SCH-H HPLCMT-CORE ZN,222.97,11.2,11.2,5.002E-002,19.993,0.300,0.700,AutoCalculate,NECB-ACTIVITY,No,3.8200E-008,10,10
 People Internal Gains Nominal, SP-IC_PATROOM1_MULT5_FLR_2 SYS-3 FLR-3 SCH-H HPLCMT-NORTH ZN SPACE FUNCTION HEALTH CARE FACILITY PATIENT ROOM PEOPLE,NECB-H-OCCUPANCY,SP-IC_PATROOM1_MULT5_FLR_2 SYS-3 FLR-3 SCH-H HPLCMT-NORTH ZN,20.90,1.0,1.0,5.002E-002,19.993,0.300,0.700,AutoCalculate,NECB-ACTIVITY,No,3.8200E-008,1,1
 People Internal Gains Nominal, SP-IC_PATROOM2_FLR_2 SYS-3 FLR-3 SCH-H HPLCMT-NORTH ZN SPACE FUNCTION HEALTH CARE FACILITY PATIENT ROOM PEOPLE,NECB-H-OCCUPANCY,SP-IC_PATROOM2_FLR_2 SYS-3 FLR-3 SCH-H HPLCMT-NORTH ZN,27.87,1.4,1.4,5.002E-002,19.993,0.300,0.700,AutoCalculate,NECB-ACTIVITY,No,3.8200E-008,1,1
 People Internal Gains Nominal, SP-IC_PATROOM3_MULT6_FLR_2 SYS-3 FLR-3 SCH-H HPLCMT-WEST ZN SPACE FUNCTION HEALTH CARE FACILITY PATIENT ROOM PEOPLE,NECB-H-OCCUPANCY,SP-IC_PATROOM3_MULT6_FLR_2 SYS-3 FLR-3 SCH-H HPLCMT-WEST ZN,20.90,1.0,1.0,5.002E-002,19.993,0.300,0.700,AutoCalculate,NECB-ACTIVITY,No,3.8200E-008,1,1
 People Internal Gains Nominal, SP-PATROOM1_MULT10_FLR_3 SYS-3 FLR-4 SCH-H HPLCMT-SOUTH ZN SPACE FUNCTION HEALTH CARE FACILITY PATIENT ROOM PEOPLE,NECB-H-OCCUPANCY,SP-PATROOM1_MULT10_FLR_3 SYS-3 FLR-4 SCH-H HPLCMT-SOUTH ZN,20.90,1.0,1.0,5.002E-002,19.993,0.300,0.700,AutoCalculate,NECB-ACTIVITY,No,3.8200E-008,1,1
 People Internal Gains Nominal, SP-PATROOM1_MULT10_FLR_4 SYS-3 FLR-5 SCH-H HPLCMT-SOUTH ZN SPACE FUNCTION HEALTH CARE FACILITY PATIENT ROOM PEOPLE,NECB-H-OCCUPANCY,SP-PATROOM1_MULT10_FLR_4 SYS-3 FLR-5 SCH-H HPLCMT-SOUTH ZN,20.90,1.0,1.0,5.002E-002,19.993,0.300,0.700,AutoCalculate,NECB-ACTIVITY,No,3.8200E-008,1,1
 People Internal Gains Nominal, SP-PATROOM2_FLR_3 SYS-3 FLR-4 SCH-H HPLCMT-SOUTH ZN SPACE FUNCTION HEALTH CARE FACILITY PATIENT ROOM PEOPLE,NECB-H-OCCUPANCY,SP-PATROOM2_FLR_3 SYS-3 FLR-4 SCH-H HPLCMT-SOUTH ZN,34.84,1.7,1.7,5.002E-002,19.993,0.300,0.700,AutoCalculate,NECB-ACTIVITY,No,3.8200E-008,2,2
 People Internal Gains Nominal, SP-PATROOM2_FLR_4 SYS-3 FLR-5 SCH-H HPLCMT-SOUTH ZN SPACE FUNCTION HEALTH CARE FACILITY PATIENT ROOM PEOPLE,NECB-H-OCCUPANCY,SP-PATROOM2_FLR_4 SYS-3 FLR-5 SCH-H HPLCMT-SOUTH ZN,34.84,1.7,1.7,5.002E-002,19.993,0.300,0.700,AutoCalculate,NECB-ACTIVITY,No,3.8200E-008,2,2
 People Internal Gains Nominal, SP-PATROOM3_MULT10_FLR_3 SYS-3 FLR-4 SCH-H HPLCMT-EAST ZN SPACE FUNCTION HEALTH CARE FACILITY PATIENT ROOM PEOPLE,NECB-H-OCCUPANCY,SP-PATROOM3_MULT10_FLR_3 SYS-3 FLR-4 SCH-H HPLCMT-EAST ZN,20.21,1.0,1.0,5.002E-002,19.993,0.300,0.700,AutoCalculate,NECB-ACTIVITY,No,3.8200E-008,1,1
 People Internal Gains Nominal, SP-PATROOM3_MULT10_FLR_4 SYS-3 FLR-5 SCH-H HPLCMT-EAST ZN SPACE FUNCTION HEALTH CARE FACILITY PATIENT ROOM PEOPLE,NECB-H-OCCUPANCY,SP-PATROOM3_MULT10_FLR_4 SYS-3 FLR-5 SCH-H HPLCMT-EAST ZN,20.21,1.0,1.0,5.002E-002,19.993,0.300,0.700,AutoCalculate,NECB-ACTIVITY,No,3.8200E-008,1,1
 People Internal Gains Nominal, SP-PATROOM4_FLR_3 SYS-3 FLR-4 SCH-H HPLCMT-NORTH ZN SPACE FUNCTION HEALTH CARE FACILITY PATIENT ROOM PEOPLE,NECB-H-OCCUPANCY,SP-PATROOM4_FLR_3 SYS-3 FLR-4 SCH-H HPLCMT-NORTH ZN,34.84,1.7,1.7,5.002E-002,19.993,0.300,0.700,AutoCalculate,NECB-ACTIVITY,No,3.8200E-008,2,2
 People Internal Gains Nominal, SP-PATROOM4_FLR_4 SYS-3 FLR-5 SCH-H HPLCMT-NORTH ZN SPACE FUNCTION HEALTH CARE FACILITY PATIENT ROOM PEOPLE,NECB-H-OCCUPANCY,SP-PATROOM4_FLR_4 SYS-3 FLR-5 SCH-H HPLCMT-NORTH ZN,34.84,1.7,1.7,5.002E-002,19.993,0.300,0.700,AutoCalculate,NECB-ACTIVITY,No,3.8200E-008,2,2
 People Internal Gains Nominal, SP-PATROOM5_MULT10_FLR_3 SYS-3 FLR-4 SCH-H HPLCMT-NORTH ZN SPACE FUNCTION HEALTH CARE FACILITY PATIENT ROOM PEOPLE,NECB-H-OCCUPANCY,SP-PATROOM5_MULT10_FLR_3 SYS-3 FLR-4 SCH-H HPLCMT-NORTH ZN,20.90,1.0,1.0,5.002E-002,19.993,0.300,0.700,AutoCalculate,NECB-ACTIVITY,No,3.8200E-008,1,1
 People Internal Gains Nominal, SP-PATROOM5_MULT10_FLR_4 SYS-3 FLR-5 SCH-H HPLCMT-NORTH ZN SPACE FUNCTION HEALTH CARE FACILITY PATIENT ROOM PEOPLE,NECB-H-OCCUPANCY,SP-PATROOM5_MULT10_FLR_4 SYS-3 FLR-5 SCH-H HPLCMT-NORTH ZN,20.90,1.0,1.0,5.002E-002,19.993,0.300,0.700,AutoCalculate,NECB-ACTIVITY,No,3.8200E-008,1,1
 People Internal Gains Nominal, SP-PATROOM6_FLR_3 SYS-3 FLR-4 SCH-H HPLCMT-SOUTH ZN SPACE FUNCTION HEALTH CARE FACILITY PATIENT ROOM PEOPLE,NECB-H-OCCUPANCY,SP-PATROOM6_FLR_3 SYS-3 FLR-4 SCH-H HPLCMT-SOUTH ZN,27.87,1.4,1.4,5.002E-002,19.993,0.300,0.700,AutoCalculate,NECB-ACTIVITY,No,3.8200E-008,1,1
 People Internal Gains Nominal, SP-PATROOM6_FLR_4 SYS-3 FLR-5 SCH-H HPLCMT-SOUTH ZN SPACE FUNCTION HEALTH CARE FACILITY PATIENT ROOM PEOPLE,NECB-H-OCCUPANCY,SP-PATROOM6_FLR_4 SYS-3 FLR-5 SCH-H HPLCMT-SOUTH ZN,27.87,1.4,1.4,5.002E-002,19.993,0.300,0.700,AutoCalculate,NECB-ACTIVITY,No,3.8200E-008,1,1
 People Internal Gains Nominal, SP-PATROOM7_MULT10_FLR_3 SYS-3 FLR-4 SCH-H HPLCMT-WEST ZN SPACE FUNCTION HEALTH CARE FACILITY PATIENT ROOM PEOPLE,NECB-H-OCCUPANCY,SP-PATROOM7_MULT10_FLR_3 SYS-3 FLR-4 SCH-H HPLCMT-WEST ZN,20.21,1.0,1.0,5.002E-002,19.993,0.300,0.700,AutoCalculate,NECB-ACTIVITY,No,3.8200E-008,1,1
 People Internal Gains Nominal, SP-PATROOM7_MULT10_FLR_4 SYS-3 FLR-5 SCH-H HPLCMT-WEST ZN SPACE FUNCTION HEALTH CARE FACILITY PATIENT ROOM PEOPLE,NECB-H-OCCUPANCY,SP-PATROOM7_MULT10_FLR_4 SYS-3 FLR-5 SCH-H HPLCMT-WEST ZN,20.21,1.0,1.0,5.002E-002,19.993,0.300,0.700,AutoCalculate,NECB-ACTIVITY,No,3.8200E-008,1,1
 People Internal Gains Nominal, SP-PATROOM8_FLR_3 SYS-3 FLR-4 SCH-H HPLCMT-NORTH ZN SPACE FUNCTION HEALTH CARE FACILITY PATIENT ROOM PEOPLE,NECB-H-OCCUPANCY,SP-PATROOM8_FLR_3 SYS-3 FLR-4 SCH-H HPLCMT-NORTH ZN,27.87,1.4,1.4,5.002E-002,19.993,0.300,0.700,AutoCalculate,NECB-ACTIVITY,No,3.8200E-008,1,1
 People Internal Gains Nominal, SP-PATROOM8_FLR_4 SYS-3 FLR-5 SCH-H HPLCMT-NORTH ZN SPACE FUNCTION HEALTH CARE FACILITY PATIENT ROOM PEOPLE,NECB-H-OCCUPANCY,SP-PATROOM8_FLR_4 SYS-3 FLR-5 SCH-H HPLCMT-NORTH ZN,27.87,1.4,1.4,5.002E-002,19.993,0.300,0.700,AutoCalculate,NECB-ACTIVITY,No,3.8200E-008,1,1
 People Internal Gains Nominal, SP-PHYSTHERAPY_FLR_3 SYS-3 FLR-4 SCH-C HPLCMT-CORE ZN SPACE FUNCTION HEALTH CARE FACILITY PHYSICAL THERAPY ROOM PEOPLE,NECB-C-OCCUPANCY,SP-PHYSTHERAPY_FLR_3 SYS-3 FLR-4 SCH-C HPLCMT-CORE ZN,487.74,24.4,24.4,5.002E-002,19.993,0.300,0.700,AutoCalculate,NECB-ACTIVITY,No,3.8200E-008,0,22
 People Internal Gains Nominal, SP-ICU_FLR_2 SYS-3 FLR-3 SCH-H HPLCMT-SOUTH ZN SPACE FUNCTION HEALTH CARE FACILITY RECOVERY ROOM PEOPLE,NECB-H-OCCUPANCY,SP-ICU_FLR_2 SYS-3 FLR-3 SCH-H HPLCMT-SOUTH ZN,617.96,30.9,30.9,5.002E-002,19.993,0.300,0.700,AutoCalculate,NECB-ACTIVITY,No,3.8200E-008,28,28
 People Internal Gains Nominal, SP-BASEMENT SYS-3 FLR-1 SCH-A HPLCMT-NORTH ZN SPACE FUNCTION LABORATORY - OTHER PEOPLE,NECB-A-OCCUPANCY,SP-BASEMENT SYS-3 FLR-1 SCH-A HPLCMT-NORTH ZN,3739.35,187.0,187.0,5.002E-002,19.993,0.300,0.700,AutoCalculate,NECB-ACTIVITY,No,3.8200E-008,0,168
 People Internal Gains Nominal, SP-LAB_FLR_3 SYS-3 FLR-4 SCH-A HPLCMT-CORE ZN SPACE FUNCTION LABORATORY - OTHER PEOPLE,NECB-A-OCCUPANCY,SP-LAB_FLR_3 SYS-3 FLR-4 SCH-A HPLCMT-CORE ZN,264.77,13.2,13.2,5.002E-002,19.993,0.300,0.700,AutoCalculate,NECB-ACTIVITY,No,3.8200E-008,0,12
 People Internal Gains Nominal, SP-LAB_FLR_4 SYS-3 FLR-5 SCH-A HPLCMT-CORE ZN SPACE FUNCTION LABORATORY - OTHER PEOPLE,NECB-A-OCCUPANCY,SP-LAB_FLR_4 SYS-3 FLR-5 SCH-A HPLCMT-CORE ZN,264.77,13.2,13.2,5.002E-002,19.993,0.300,0.700,AutoCalculate,NECB-ACTIVITY,No,3.8200E-008,0,12
 People Internal Gains Nominal, SP-LOBBY_RECORDS_FLR_1 SYS-6 FLR-2 SCH-A HPLCMT-WEST ZN SPACE FUNCTION OFFICE ENCLOSED > 25 M2 PEOPLE,NECB-A-OCCUPANCY,SP-LOBBY_RECORDS_FLR_1 SYS-6 FLR-2 SCH-A HPLCMT-WEST ZN,1474.81,73.8,73.8,5.002E-002,19.993,0.300,0.700,AutoCalculate,NECB-ACTIVITY,No,3.8200E-008,0,66
 People Internal Gains Nominal, SP-OFFICE1_FLR_5 SYS-6 FLR-7 SCH-A HPLCMT-SOUTH ZN SPACE FUNCTION OFFICE ENCLOSED > 25 M2 PEOPLE,NECB-A-OCCUPANCY,SP-OFFICE1_FLR_5 SYS-6 FLR-7 SCH-A HPLCMT-SOUTH ZN,69.70,3.5,3.5,5.002E-002,19.993,0.300,0.700,AutoCalculate,NECB-ACTIVITY,No,3.8200E-008,0,3
 People Internal Gains Nominal, SP-OFFICE1_MULT4_FLR_1 SYS-6 FLR-2 SCH-A HPLCMT-SOUTH ZN SPACE FUNCTION OFFICE ENCLOSED > 25 M2 PEOPLE,NECB-A-OCCUPANCY,SP-OFFICE1_MULT4_FLR_1 SYS-6 FLR-2 SCH-A HPLCMT-SOUTH ZN,13.94,0.7,0.7,5.002E-002,19.993,0.300,0.700,AutoCalculate,NECB-ACTIVITY,No,3.8200E-008,0,1
 People Internal Gains Nominal, SP-OFFICE2_MULT5_FLR_5 SYS-6 FLR-7 SCH-A HPLCMT-WEST ZN SPACE FUNCTION OFFICE ENCLOSED > 25 M2 PEOPLE,NECB-A-OCCUPANCY,SP-OFFICE2_MULT5_FLR_5 SYS-6 FLR-7 SCH-A HPLCMT-WEST ZN,69.66,3.5,3.5,5.002E-002,19.993,0.300,0.700,AutoCalculate,NECB-ACTIVITY,No,3.8200E-008,0,3
 People Internal Gains Nominal, SP-OFFICE3_FLR_5 SYS-6 FLR-7 SCH-A HPLCMT-NORTH ZN SPACE FUNCTION OFFICE ENCLOSED > 25 M2 PEOPLE,NECB-A-OCCUPANCY,SP-OFFICE3_FLR_5 SYS-6 FLR-7 SCH-A HPLCMT-NORTH ZN,69.68,3.5,3.5,5.002E-002,19.993,0.300,0.700,AutoCalculate,NECB-ACTIVITY,No,3.8200E-008,0,3
 People Internal Gains Nominal, SP-OFFICE4_MULT6_FLR_5 SYS-6 FLR-7 SCH-A HPLCMT-NORTH ZN SPACE FUNCTION OFFICE ENCLOSED > 25 M2 PEOPLE,NECB-A-OCCUPANCY,SP-OFFICE4_MULT6_FLR_5 SYS-6 FLR-7 SCH-A HPLCMT-NORTH ZN,13.94,0.7,0.7,5.002E-002,19.993,0.300,0.700,AutoCalculate,NECB-ACTIVITY,No,3.8200E-008,0,1
! <Lights Internal Gains Nominal>,Name,Schedule Name,Zone Name,Zone Floor Area {m2},# Zone Occupants,Lighting Level {W},Lights/Floor Area {W/m2},Lights per person {W/person},Fraction Return Air,Fraction Radiant,Fraction Short Wave,Fraction Convected,Fraction Replaceable,End-Use Category,Nominal Minimum Lighting Level {W},Nominal Maximum Lighting Level {W}
 Lights Internal Gains Nominal, SP-CORRIDOR_FLR_1 SYS-3 FLR-2 SCH-B HPLCMT-NORTH ZN SPACE FUNCTION CORRIDOR/TRANSITION AREA - HOSPITAL-SCH-B LIGHTS,NECB-B-OCCUPANCY-NECB-B-LIGHTING-0.0-0.0-0.67-LIGHT RULESET,SP-CORRIDOR_FLR_1 SYS-3 FLR-2 SCH-B HPLCMT-NORTH ZN,569.03,5.7,6090.846,10.704,1070.000,0.000,0.500,0.200,0.300,1.000,General,609.085,5481.761
 Lights Internal Gains Nominal, SP-CORRIDOR_FLR_2 SYS-3 FLR-3 SCH-B HPLCMT-NORTH ZN SPACE FUNCTION CORRIDOR/TRANSITION AREA - HOSPITAL-SCH-B LIGHTS,NECB-B-OCCUPANCY-NECB-B-LIGHTING-0.0-0.0-0.67-LIGHT RULESET,SP-CORRIDOR_FLR_2 SYS-3 FLR-3 SCH-B HPLCMT-NORTH ZN,569.03,5.7,6090.846,10.704,1070.000,0.000,0.500,0.200,0.300,1.000,General,609.085,5481.761
 Lights Internal Gains Nominal, SP-CORRIDOR_FLR_5 SYS-3 FLR-7 SCH-B HPLCMT-NORTH ZN SPACE FUNCTION CORRIDOR/TRANSITION AREA - HOSPITAL-SCH-B LIGHTS,NECB-B-OCCUPANCY-NECB-B-LIGHTING-0.0-0.0-0.67-LIGHT RULESET,SP-CORRIDOR_FLR_5 SYS-3 FLR-7 SCH-B HPLCMT-NORTH ZN,501.68,5.0,5369.888,10.704,1070.000,0.000,0.500,0.200,0.300,1.000,General,536.989,4832.900
 Lights Internal Gains Nominal, SP-CORRIDOR_NW_FLR_3 SYS-3 FLR-4 SCH-B HPLCMT-NORTH ZN SPACE FUNCTION CORRIDOR/TRANSITION AREA - HOSPITAL-SCH-B LIGHTS,NECB-B-OCCUPANCY-NECB-B-LIGHTING-0.0-0.0-0.67-LIGHT RULESET,SP-CORRIDOR_NW_FLR_3 SYS-3 FLR-4 SCH-B HPLCMT-NORTH ZN,566.71,5.7,6065.985,10.704,1070.000,0.000,0.500,0.200,0.300,1.000,General,606.599,5459.387
 Lights Internal Gains Nominal, SP-CORRIDOR_NW_FLR_4 SYS-3 FLR-5 SCH-B HPLCMT-NORTH ZN SPACE FUNCTION CORRIDOR/TRANSITION AREA - HOSPITAL-SCH-B LIGHTS,NECB-B-OCCUPANCY-NECB-B-LIGHTING-0.0-0.0-0.67-LIGHT RULESET,SP-CORRIDOR_NW_FLR_4 SYS-3 FLR-5 SCH-B HPLCMT-NORTH ZN,566.71,5.7,6065.985,10.704,1070.000,0.000,0.500,0.200,0.300,1.000,General,606.599,5459.387
 Lights Internal Gains Nominal, SP-CORRIDOR_SE_FLR_3 SYS-3 FLR-4 SCH-B HPLCMT-SOUTH ZN SPACE FUNCTION CORRIDOR/TRANSITION AREA - HOSPITAL-SCH-B LIGHTS,NECB-B-OCCUPANCY-NECB-B-LIGHTING-0.0-0.0-0.67-LIGHT RULESET,SP-CORRIDOR_SE_FLR_3 SYS-3 FLR-4 SCH-B HPLCMT-SOUTH ZN,566.71,5.7,6065.985,10.704,1070.000,0.000,0.500,0.200,0.300,1.000,General,606.599,5459.387
 Lights Internal Gains Nominal, SP-CORRIDOR_SE_FLR_4 SYS-3 FLR-5 SCH-B HPLCMT-SOUTH ZN SPACE FUNCTION CORRIDOR/TRANSITION AREA - HOSPITAL-SCH-B LIGHTS,NECB-B-OCCUPANCY-NECB-B-LIGHTING-0.0-0.0-0.67-LIGHT RULESET,SP-CORRIDOR_SE_FLR_4 SYS-3 FLR-5 SCH-B HPLCMT-SOUTH ZN,566.71,5.7,6065.985,10.704,1070.000,0.000,0.500,0.200,0.300,1.000,General,606.599,5459.387
 Lights Internal Gains Nominal, SP-DINING_FLR_5 SYS-3 FLR-7 SCH-B HPLCMT-SOUTH ZN SPACE FUNCTION DINING AREA - BAR LOUNGE/LEISURE DINING LIGHTS,NECB-B-OCCUPANCY-NECB-B-LIGHTING-0.0-0.0-0.67-LIGHT RULESET,SP-DINING_FLR_5 SYS-3 FLR-7 SCH-B HPLCMT-SOUTH ZN,696.77,69.7,8085.502,11.604,116.000,0.000,0.500,0.200,0.300,1.000,General,808.550,7276.952
 Lights Internal Gains Nominal, SP-KITCHEN_FLR_5 SYS-3 FLR-7 SCH-B HPLCMT-NORTH ZN SPACE FUNCTION FOOD PREPARATION AREA LIGHTS,NECB-B-OCCUPANCY-NECB-B-LIGHTING-0.0-0.0-0.67-LIGHT RULESET,SP-KITCHEN_FLR_5 SYS-3 FLR-7 SCH-B HPLCMT-NORTH ZN,929.03,46.5,12174.721,13.105,262.000,0.000,0.500,0.200,0.300,1.000,General,1217.472,10957.249
 Lights Internal Gains Nominal, SP-RADIOLOGY_FLR_4 SYS-3 FLR-5 SCH-H HPLCMT-CORE ZN SPACE FUNCTION HEALTH CARE FACILITY IMAGING ROOM LIGHTS,NECB-H-OCCUPANCY-NECB-H-LIGHTING-0.0-0.0-0.67-LIGHT RULESET,SP-RADIOLOGY_FLR_4 SYS-3 FLR-5 SCH-H HPLCMT-CORE ZN,487.74,24.4,7953.067,16.306,326.000,0.000,0.500,0.200,0.300,1.000,General,7157.760,7157.760
 Lights Internal Gains Nominal, SP-ER_NURSESTN_LOBBY_FLR_1 SYS-3 FLR-2 SCH-H HPLCMT-EAST ZN SPACE FUNCTION HEALTH CARE FACILITY NURSES STATION LIGHTS,NECB-H-LIGHTING,SP-ER_NURSESTN_LOBBY_FLR_1 SYS-3 FLR-2 SCH-H HPLCMT-EAST ZN,1235.61,61.8,9394.052,7.603,152.000,0.000,0.500,0.200,0.300,1.000,General,8454.647,8454.647
 Lights Internal Gains Nominal, SP-ICU_NURSESTN_LOBBY_FLR_2 SYS-3 FLR-3 SCH-H HPLCMT-CORE ZN SPACE FUNCTION HEALTH CARE FACILITY NURSES STATION LIGHTS,NECB-H-LIGHTING,SP-ICU_NURSESTN_LOBBY_FLR_2 SYS-3 FLR-3 SCH-H HPLCMT-CORE ZN,668.77,33.5,5084.482,7.603,152.000,0.000,0.500,0.200,0.300,1.000,General,4576.034,4576.034
 Lights Internal Gains Nominal, SP-NURSESTN_LOBBY_FLR_3 SYS-3 FLR-4 SCH-H HPLCMT-CORE ZN SPACE FUNCTION HEALTH CARE FACILITY NURSES STATION LIGHTS,NECB-H-LIGHTING,SP-NURSESTN_LOBBY_FLR_3 SYS-3 FLR-4 SCH-H HPLCMT-CORE ZN,905.80,45.3,6886.617,7.603,152.000,0.000,0.500,0.200,0.300,1.000,General,6197.955,6197.955
 Lights Internal Gains Nominal, SP-NURSESTN_LOBBY_FLR_4 SYS-3 FLR-5 SCH-H HPLCMT-CORE ZN SPACE FUNCTION HEALTH CARE FACILITY NURSES STATION LIGHTS,NECB-H-LIGHTING,SP-NURSESTN_LOBBY_FLR_4 SYS-3 FLR-5 SCH-H HPLCMT-CORE ZN,905.80,45.3,6886.617,7.603,152.000,0.000,0.500,0.200,0.300,1.000,General,6197.955,6197.955
 Lights Internal Gains Nominal, SP-NURSESTN_LOBBY_FLR_5 SYS-3 FLR-7 SCH-H HPLCMT-SOUTH ZN SPACE FUNCTION HEALTH CARE FACILITY NURSES STATION LIGHTS,NECB-H-LIGHTING,SP-NURSESTN_LOBBY_FLR_5 SYS-3 FLR-7 SCH-H HPLCMT-SOUTH ZN,1040.51,52.0,7910.781,7.603,152.000,0.000,0.500,0.200,0.300,1.000,General,7119.703,7119.703
 Lights Internal Gains Nominal, SP-OR_NURSESTN_LOBBY_FLR_2 SYS-3 FLR-3 SCH-H HPLCMT-SOUTH ZN SPACE FUNCTION HEALTH CARE FACILITY NURSES STATION LIGHTS,NECB-H-LIGHTING,SP-OR_NURSESTN_LOBBY_FLR_2 SYS-3 FLR-3 SCH-H HPLCMT-SOUTH ZN,1012.64,50.7,7698.885,7.603,152.000,0.000,0.500,0.200,0.300,1.000,General,6928.996,6928.996
 Lights Internal Gains Nominal, SP-ER_EXAM1_MULT4_FLR_1 SYS-3 FLR-2 SCH-H HPLCMT-SOUTH ZN SPACE FUNCTION HEALTH CARE FACILITY OPERATING ROOM LIGHTS,NECB-H-OCCUPANCY-NECB-H-LIGHTING-0.1-0.0-0.67-LIGHT RULESET,SP-ER_EXAM1_MULT4_FLR_1 SYS-3 FLR-2 SCH-H HPLCMT-SOUTH ZN,27.87,1.4,747.212,26.810,536.000,0.000,0.500,0.200,0.300,1.000,General,672.491,672.491
 Lights Internal Gains Nominal, SP-ER_EXAM3_MULT4_FLR_1 SYS-3 FLR-2 SCH-H HPLCMT-EAST ZN SPACE FUNCTION HEALTH CARE FACILITY OPERATING ROOM LIGHTS,NECB-H-OCCUPANCY-NECB-H-LIGHTING-0.1-0.0-0.67-LIGHT RULESET,SP-ER_EXAM3_MULT4_FLR_1 SYS-3 FLR-2 SCH-H HPLCMT-EAST ZN,27.87,1.4,747.212,26.810,536.000,0.000,0.500,0.200,0.300,1.000,General,672.491,672.491
 Lights Internal Gains Nominal, SP-ER_TRAUMA1_FLR_1 SYS-3 FLR-2 SCH-H HPLCMT-SOUTH ZN SPACE FUNCTION HEALTH CARE FACILITY OPERATING ROOM LIGHTS,NECB-H-OCCUPANCY-NECB-H-LIGHTING-0.1-0.0-0.67-LIGHT RULESET,SP-ER_TRAUMA1_FLR_1 SYS-3 FLR-2 SCH-H HPLCMT-SOUTH ZN,27.87,1.4,747.212,26.810,536.000,0.000,0.500,0.200,0.300,1.000,General,672.491,672.491
 Lights Internal Gains Nominal, SP-ER_TRAUMA2_FLR_1 SYS-3 FLR-2 SCH-H HPLCMT-NORTH ZN SPACE FUNCTION HEALTH CARE FACILITY OPERATING ROOM LIGHTS,NECB-H-OCCUPANCY-NECB-H-LIGHTING-0.1-0.0-0.67-LIGHT RULESET,SP-ER_TRAUMA2_FLR_1 SYS-3 FLR-2 SCH-H HPLCMT-NORTH ZN,27.87,1.4,747.212,26.810,536.000,0.000,0.500,0.200,0.300,1.000,General,672.491,672.491
 Lights Internal Gains Nominal, SP-ER_TRIAGE_MULT4_FLR_1 SYS-3 FLR-2 SCH-H HPLCMT-NORTH ZN SPACE FUNCTION HEALTH CARE FACILITY OPERATING ROOM LIGHTS,NECB-H-OCCUPANCY-NECB-H-LIGHTING-0.1-0.0-0.67-LIGHT RULESET,SP-ER_TRIAGE_MULT4_FLR_1 SYS-3 FLR-2 SCH-H HPLCMT-NORTH ZN,27.87,1.4,747.212,26.810,536.000,0.000,0.500,0.200,0.300,1.000,General,672.491,672.491
 Lights Internal Gains Nominal, SP-OR1_FLR_2 SYS-3 FLR-3 SCH-H HPLCMT-NORTH ZN SPACE FUNCTION HEALTH CARE FACILITY OPERATING ROOM LIGHTS,NECB-H-OCCUPANCY-NECB-H-LIGHTING-0.1-0.0-0.67-LIGHT RULESET,SP-OR1_FLR_2 SYS-3 FLR-3 SCH-H HPLCMT-NORTH ZN,55.74,2.8,1494.424,26.810,536.000,0.000,0.500,0.200,0.300,1.000,General,1344.981,1344.981
 Lights Internal Gains Nominal, SP-OR2_MULT5_FLR_2 SYS-3 FLR-3 SCH-H HPLCMT-EAST ZN SPACE FUNCTION HEALTH CARE FACILITY OPERATING ROOM LIGHTS,NECB-H-OCCUPANCY-NECB-H-LIGHTING-0.1-0.0-0.67-LIGHT RULESET,SP-OR2_MULT5_FLR_2 SYS-3 FLR-3 SCH-H HPLCMT-EAST ZN,55.74,2.8,1494.424,26.810,536.000,0.000,0.500,0.200,0.300,1.000,General,1344.981,1344.981
 Lights Internal Gains Nominal, SP-OR3_FLR_2 SYS-3 FLR-3 SCH-H HPLCMT-NORTH ZN SPACE FUNCTION HEALTH CARE FACILITY OPERATING ROOM LIGHTS,NECB-H-OCCUPANCY-NECB-H-LIGHTING-0.1-0.0-0.67-LIGHT RULESET,SP-OR3_FLR_2 SYS-3 FLR-3 SCH-H HPLCMT-NORTH ZN,55.74,2.8,1494.424,26.810,536.000,0.000,0.500,0.200,0.300,1.000,General,1344.981,1344.981
 Lights Internal Gains Nominal, SP-OR4_FLR_2 SYS-3 FLR-3 SCH-H HPLCMT-CORE ZN SPACE FUNCTION HEALTH CARE FACILITY OPERATING ROOM LIGHTS,NECB-H-OCCUPANCY-NECB-H-LIGHTING-0.1-0.0-0.67-LIGHT RULESET,SP-OR4_FLR_2 SYS-3 FLR-3 SCH-H HPLCMT-CORE ZN,222.97,11.2,5977.695,26.810,536.000,0.000,0.500,0.200,0.300,1.000,General,5379.926,5379.926
 Lights Internal Gains Nominal, SP-IC_PATROOM1_MULT5_FLR_2 SYS-3 FLR-3 SCH-H HPLCMT-NORTH ZN SPACE FUNCTION HEALTH CARE FACILITY PATIENT ROOM LIGHTS,NECB-H-LIGHTING,SP-IC_PATROOM1_MULT5_FLR_2 SYS-3 FLR-3 SCH-H HPLCMT-NORTH ZN,20.90,1.0,140.102,6.702,134.000,0.000,0.500,0.200,0.300,1.000,General,126.092,126.092
 Lights Internal Gains Nominal, SP-IC_PATROOM2_FLR_2 SYS-3 FLR-3 SCH-H HPLCMT-NORTH ZN SPACE FUNCTION HEALTH CARE FACILITY PATIENT ROOM LIGHTS,NECB-H-LIGHTING,SP-IC_PATROOM2_FLR_2 SYS-3 FLR-3 SCH-H HPLCMT-NORTH ZN,27.87,1.4,186.803,6.702,134.000,0.000,0.500,0.200,0.300,1.000,General,168.123,168.123
 Lights Internal Gains Nominal, SP-IC_PATROOM3_MULT6_FLR_2 SYS-3 FLR-3 SCH-H HPLCMT-WEST ZN SPACE FUNCTION HEALTH CARE FACILITY PATIENT ROOM LIGHTS,NECB-H-LIGHTING,SP-IC_PATROOM3_MULT6_FLR_2 SYS-3 FLR-3 SCH-H HPLCMT-WEST ZN,20.90,1.0,140.102,6.702,134.000,0.000,0.500,0.200,0.300,1.000,General,126.092,126.092
 Lights Internal Gains Nominal, SP-PATROOM1_MULT10_FLR_3 SYS-3 FLR-4 SCH-H HPLCMT-SOUTH ZN SPACE FUNCTION HEALTH CARE FACILITY PATIENT ROOM LIGHTS,NECB-H-LIGHTING,SP-PATROOM1_MULT10_FLR_3 SYS-3 FLR-4 SCH-H HPLCMT-SOUTH ZN,20.90,1.0,140.102,6.702,134.000,0.000,0.500,0.200,0.300,1.000,General,126.092,126.092
 Lights Internal Gains Nominal, SP-PATROOM1_MULT10_FLR_4 SYS-3 FLR-5 SCH-H HPLCMT-SOUTH ZN SPACE FUNCTION HEALTH CARE FACILITY PATIENT ROOM LIGHTS,NECB-H-LIGHTING,SP-PATROOM1_MULT10_FLR_4 SYS-3 FLR-5 SCH-H HPLCMT-SOUTH ZN,20.90,1.0,140.102,6.702,134.000,0.000,0.500,0.200,0.300,1.000,General,126.092,126.092
 Lights Internal Gains Nominal, SP-PATROOM2_FLR_3 SYS-3 FLR-4 SCH-H HPLCMT-SOUTH ZN SPACE FUNCTION HEALTH CARE FACILITY PATIENT ROOM LIGHTS,NECB-H-LIGHTING,SP-PATROOM2_FLR_3 SYS-3 FLR-4 SCH-H HPLCMT-SOUTH ZN,34.84,1.7,233.504,6.702,134.000,0.000,0.500,0.200,0.300,1.000,General,210.153,210.153
 Lights Internal Gains Nominal, SP-PATROOM2_FLR_4 SYS-3 FLR-5 SCH-H HPLCMT-SOUTH ZN SPACE FUNCTION HEALTH CARE FACILITY PATIENT ROOM LIGHTS,NECB-H-LIGHTING,SP-PATROOM2_FLR_4 SYS-3 FLR-5 SCH-H HPLCMT-SOUTH ZN,34.84,1.7,233.504,6.702,134.000,0.000,0.500,0.200,0.300,1.000,General,210.153,210.153
 Lights Internal Gains Nominal, SP-PATROOM3_MULT10_FLR_3 SYS-3 FLR-4 SCH-H HPLCMT-EAST ZN SPACE FUNCTION HEALTH CARE FACILITY PATIENT ROOM LIGHTS,NECB-H-LIGHTING,SP-PATROOM3_MULT10_FLR_3 SYS-3 FLR-4 SCH-H HPLCMT-EAST ZN,20.21,1.0,135.444,6.702,134.000,0.000,0.500,0.200,0.300,1.000,General,121.900,121.900
 Lights Internal Gains Nominal, SP-PATROOM3_MULT10_FLR_4 SYS-3 FLR-5 SCH-H HPLCMT-EAST ZN SPACE FUNCTION HEALTH CARE FACILITY PATIENT ROOM LIGHTS,NECB-H-LIGHTING,SP-PATROOM3_MULT10_FLR_4 SYS-3 FLR-5 SCH-H HPLCMT-EAST ZN,20.21,1.0,135.444,6.702,134.000,0.000,0.500,0.200,0.300,1.000,General,121.900,121.900
 Lights Internal Gains Nominal, SP-PATROOM4_FLR_3 SYS-3 FLR-4 SCH-H HPLCMT-NORTH ZN SPACE FUNCTION HEALTH CARE FACILITY PATIENT ROOM LIGHTS,NECB-H-LIGHTING,SP-PATROOM4_FLR_3 SYS-3 FLR-4 SCH-H HPLCMT-NORTH ZN,34.84,1.7,233.504,6.702,134.000,0.000,0.500,0.200,0.300,1.000,General,210.153,210.153
 Lights Internal Gains Nominal, SP-PATROOM4_FLR_4 SYS-3 FLR-5 SCH-H HPLCMT-NORTH ZN SPACE FUNCTION HEALTH CARE FACILITY PATIENT ROOM LIGHTS,NECB-H-LIGHTING,SP-PATROOM4_FLR_4 SYS-3 FLR-5 SCH-H HPLCMT-NORTH ZN,34.84,1.7,233.504,6.702,134.000,0.000,0.500,0.200,0.300,1.000,General,210.153,210.153
 Lights Internal Gains Nominal, SP-PATROOM5_MULT10_FLR_3 SYS-3 FLR-4 SCH-H HPLCMT-NORTH ZN SPACE FUNCTION HEALTH CARE FACILITY PATIENT ROOM LIGHTS,NECB-H-LIGHTING,SP-PATROOM5_MULT10_FLR_3 SYS-3 FLR-4 SCH-H HPLCMT-NORTH ZN,20.90,1.0,140.102,6.702,134.000,0.000,0.500,0.200,0.300,1.000,General,126.092,126.092
 Lights Internal Gains Nominal, SP-PATROOM5_MULT10_FLR_4 SYS-3 FLR-5 SCH-H HPLCMT-NORTH ZN SPACE FUNCTION HEALTH CARE FACILITY PATIENT ROOM LIGHTS,NECB-H-LIGHTING,SP-PATROOM5_MULT10_FLR_4 SYS-3 FLR-5 SCH-H HPLCMT-NORTH ZN,20.90,1.0,140.102,6.702,134.000,0.000,0.500,0.200,0.300,1.000,General,126.092,126.092
 Lights Internal Gains Nominal, SP-PATROOM6_FLR_3 SYS-3 FLR-4 SCH-H HPLCMT-SOUTH ZN SPACE FUNCTION HEALTH CARE FACILITY PATIENT ROOM LIGHTS,NECB-H-LIGHTING,SP-PATROOM6_FLR_3 SYS-3 FLR-4 SCH-H HPLCMT-SOUTH ZN,27.87,1.4,186.803,6.702,134.000,0.000,0.500,0.200,0.300,1.000,General,168.123,168.123
 Lights Internal Gains Nominal, SP-PATROOM6_FLR_4 SYS-3 FLR-5 SCH-H HPLCMT-SOUTH ZN SPACE FUNCTION HEALTH CARE FACILITY PATIENT ROOM LIGHTS,NECB-H-LIGHTING,SP-PATROOM6_FLR_4 SYS-3 FLR-5 SCH-H HPLCMT-SOUTH ZN,27.87,1.4,186.803,6.702,134.000,0.000,0.500,0.200,0.300,1.000,General,168.123,168.123
 Lights Internal Gains Nominal, SP-PATROOM7_MULT10_FLR_3 SYS-3 FLR-4 SCH-H HPLCMT-WEST ZN SPACE FUNCTION HEALTH CARE FACILITY PATIENT ROOM LIGHTS,NECB-H-LIGHTING,SP-PATROOM7_MULT10_FLR_3 SYS-3 FLR-4 SCH-H HPLCMT-WEST ZN,20.21,1.0,135.444,6.702,134.000,0.000,0.500,0.200,0.300,1.000,General,121.900,121.900
 Lights Internal Gains Nominal, SP-PATROOM7_MULT10_FLR_4 SYS-3 FLR-5 SCH-H HPLCMT-WEST ZN SPACE FUNCTION HEALTH CARE FACILITY PATIENT ROOM LIGHTS,NECB-H-LIGHTING,SP-PATROOM7_MULT10_FLR_4 SYS-3 FLR-5 SCH-H HPLCMT-WEST ZN,20.21,1.0,135.444,6.702,134.000,0.000,0.500,0.200,0.300,1.000,General,121.900,121.900
 Lights Internal Gains Nominal, SP-PATROOM8_FLR_3 SYS-3 FLR-4 SCH-H HPLCMT-NORTH ZN SPACE FUNCTION HEALTH CARE FACILITY PATIENT ROOM LIGHTS,NECB-H-LIGHTING,SP-PATROOM8_FLR_3 SYS-3 FLR-4 SCH-H HPLCMT-NORTH ZN,27.87,1.4,186.803,6.702,134.000,0.000,0.500,0.200,0.300,1.000,General,168.123,168.123
 Lights Internal Gains Nominal, SP-PATROOM8_FLR_4 SYS-3 FLR-5 SCH-H HPLCMT-NORTH ZN SPACE FUNCTION HEALTH CARE FACILITY PATIENT ROOM LIGHTS,NECB-H-LIGHTING,SP-PATROOM8_FLR_4 SYS-3 FLR-5 SCH-H HPLCMT-NORTH ZN,27.87,1.4,186.803,6.702,134.000,0.000,0.500,0.200,0.300,1.000,General,168.123,168.123
 Lights Internal Gains Nominal, SP-PHYSTHERAPY_FLR_3 SYS-3 FLR-4 SCH-C HPLCMT-CORE ZN SPACE FUNCTION HEALTH CARE FACILITY PHYSICAL THERAPY ROOM LIGHTS,NECB-C-OCCUPANCY-NECB-C-LIGHTING-0.2-0.0-0.67-LIGHT RULESET,SP-PHYSTHERAPY_FLR_3 SYS-3 FLR-4 SCH-C HPLCMT-CORE ZN,487.74,24.4,4830.390,9.904,198.000,0.000,0.500,0.200,0.300,1.000,General,209.156,4347.351
 Lights Internal Gains Nominal, SP-ICU_FLR_2 SYS-3 FLR-3 SCH-H HPLCMT-SOUTH ZN SPACE FUNCTION HEALTH CARE FACILITY RECOVERY ROOM LIGHTS,NECB-H-OCCUPANCY-NECB-H-LIGHTING-0.0-0.0-0.67-LIGHT RULESET,SP-ICU_FLR_2 SYS-3 FLR-3 SCH-H HPLCMT-SOUTH ZN,617.96,30.9,7665.544,12.405,248.000,0.000,0.500,0.200,0.300,1.000,General,6898.990,6898.990
 Lights Internal Gains Nominal, SP-BASEMENT SYS-3 FLR-1 SCH-A HPLCMT-NORTH ZN SPACE FUNCTION LABORATORY - OTHER LIGHTS,NECB-A-OCCUPANCY-NECB-A-LIGHTING-0.0-0.0-0.67-LIGHT RULESET,SP-BASEMENT SYS-3 FLR-1 SCH-A HPLCMT-NORTH ZN,3739.35,187.0,72943.773,19.507,390.000,0.000,0.500,0.200,0.300,1.000,General,3647.189,65649.396
 Lights Internal Gains Nominal, SP-LAB_FLR_3 SYS-3 FLR-4 SCH-A HPLCMT-CORE ZN SPACE FUNCTION LABORATORY - OTHER LIGHTS,NECB-A-OCCUPANCY-NECB-A-LIGHTING-0.0-0.0-0.67-LIGHT RULESET,SP-LAB_FLR_3 SYS-3 FLR-4 SCH-A HPLCMT-CORE ZN,264.77,13.2,5164.963,19.507,390.000,0.000,0.500,0.200,0.300,1.000,General,258.248,4648.467
 Lights Internal Gains Nominal, SP-LAB_FLR_4 SYS-3 FLR-5 SCH-A HPLCMT-CORE ZN SPACE FUNCTION LABORATORY - OTHER LIGHTS,NECB-A-OCCUPANCY-NECB-A-LIGHTING-0.0-0.0-0.67-LIGHT RULESET,SP-LAB_FLR_4 SYS-3 FLR-5 SCH-A HPLCMT-CORE ZN,264.77,13.2,5164.963,19.507,390.000,0.000,0.500,0.200,0.300,1.000,General,258.248,4648.467
 Lights Internal Gains Nominal, SP-LOBBY_RECORDS_FLR_1 SYS-6 FLR-2 SCH-A HPLCMT-WEST ZN SPACE FUNCTION OFFICE ENCLOSED > 25 M2 LIGHTS,NECB-A-OCCUPANCY-NECB-A-LIGHTING-0.3-0.1-0.67-LIGHT RULESET,SP-LOBBY_RECORDS_FLR_1 SYS-6 FLR-2 SCH-A HPLCMT-WEST ZN,1474.81,73.8,17704.159,12.004,240.000,0.000,0.500,0.200,0.300,1.000,General,618.760,15933.743
 Lights Internal Gains Nominal, SP-OFFICE1_FLR_5 SYS-6 FLR-7 SCH-A HPLCMT-SOUTH ZN SPACE FUNCTION OFFICE ENCLOSED > 25 M2 LIGHTS,NECB-A-OCCUPANCY-NECB-A-LIGHTING-0.3-0.1-0.67-LIGHT RULESET,SP-OFFICE1_FLR_5 SYS-6 FLR-7 SCH-A HPLCMT-SOUTH ZN,69.70,3.5,836.651,12.004,240.000,0.000,0.500,0.200,0.300,1.000,General,29.241,752.986
 Lights Internal Gains Nominal, SP-OFFICE1_MULT4_FLR_1 SYS-6 FLR-2 SCH-A HPLCMT-SOUTH ZN SPACE FUNCTION OFFICE ENCLOSED > 25 M2 LIGHTS,NECB-A-OCCUPANCY-NECB-A-LIGHTING-0.3-0.1-0.67-LIGHT RULESET,SP-OFFICE1_MULT4_FLR_1 SYS-6 FLR-2 SCH-A HPLCMT-SOUTH ZN,13.94,0.7,167.286,12.004,240.000,0.000,0.500,0.200,0.300,1.000,General,5.847,150.558
 Lights Internal Gains Nominal, SP-OFFICE2_MULT5_FLR_5 SYS-6 FLR-7 SCH-A HPLCMT-WEST ZN SPACE FUNCTION OFFICE ENCLOSED > 25 M2 LIGHTS,NECB-A-OCCUPANCY-NECB-A-LIGHTING-0.3-0.1-0.67-LIGHT RULESET,SP-OFFICE2_MULT5_FLR_5 SYS-6 FLR-7 SCH-A HPLCMT-WEST ZN,69.66,3.5,836.212,12.004,240.000,0.000,0.500,0.200,0.300,1.000,General,29.226,752.591
 Lights Internal Gains Nominal, SP-OFFICE3_FLR_5 SYS-6 FLR-7 SCH-A HPLCMT-NORTH ZN SPACE FUNCTION OFFICE ENCLOSED > 25 M2 LIGHTS,NECB-A-OCCUPANCY-NECB-A-LIGHTING-0.3-0.1-0.67-LIGHT RULESET,SP-OFFICE3_FLR_5 SYS-6 FLR-7 SCH-A HPLCMT-NORTH ZN,69.68,3.5,836.431,12.004,240.000,0.000,0.500,0.200,0.300,1.000,General,29.233,752.788
 Lights Internal Gains Nominal, SP-OFFICE4_MULT6_FLR_5 SYS-6 FLR-7 SCH-A HPLCMT-NORTH ZN SPACE FUNCTION OFFICE ENCLOSED > 25 M2 LIGHTS,NECB-A-OCCUPANCY-NECB-A-LIGHTING-0.3-0.1-0.67-LIGHT RULESET,SP-OFFICE4_MULT6_FLR_5 SYS-6 FLR-7 SCH-A HPLCMT-NORTH ZN,13.94,0.7,167.286,12.004,240.000,0.000,0.500,0.200,0.300,1.000,General,5.847,150.558
! <ElectricEquipment Internal Gains Nominal>,Name,Schedule Name,Zone Name,Zone Floor Area {m2},# Zone Occupants,Equipment Level {W},Equipment/Floor Area {W/m2},Equipment per person {W/person},Fraction Latent,Fraction Radiant,Fraction Lost,Fraction Convected,End-Use SubCategory,Nominal Minimum Equipment Level {W},Nominal Maximum Equipment Level {W}
 ElectricEquipment Internal Gains Nominal, SP-DINING_FLR_5 SYS-3 FLR-7 SCH-B HPLCMT-SOUTH ZN SPACE FUNCTION DINING AREA - BAR LOUNGE/LEISURE DINING ELEC EQUIP,NECB-B-ELECTRIC-EQUIPMENT,SP-DINING_FLR_5 SYS-3 FLR-7 SCH-B HPLCMT-SOUTH ZN,696.77,69.7,697.026,1.000,10.000,0.000,0.500,0.000,0.500,General,69.703,627.323
 ElectricEquipment Internal Gains Nominal, SP-KITCHEN_FLR_5 SYS-3 FLR-7 SCH-B HPLCMT-NORTH ZN SPACE FUNCTION FOOD PREPARATION AREA ELEC EQUIP,NECB-B-ELECTRIC-EQUIPMENT,SP-KITCHEN_FLR_5 SYS-3 FLR-7 SCH-B HPLCMT-NORTH ZN,929.03,46.5,9293.680,10.004,200.000,0.000,0.500,0.000,0.500,General,929.368,8364.312
 ElectricEquipment Internal Gains Nominal, SP-RADIOLOGY_FLR_4 SYS-3 FLR-5 SCH-H HPLCMT-CORE ZN SPACE FUNCTION HEALTH CARE FACILITY IMAGING ROOM ELEC EQUIP,NECB-H-ELECTRIC-EQUIPMENT,SP-RADIOLOGY_FLR_4 SYS-3 FLR-5 SCH-H HPLCMT-CORE ZN,487.74,24.4,4879.182,10.004,200.000,0.000,0.500,0.000,0.500,General,4391.264,4391.264
 ElectricEquipment Internal Gains Nominal, SP-ER_NURSESTN_LOBBY_FLR_1 SYS-3 FLR-2 SCH-H HPLCMT-EAST ZN SPACE FUNCTION HEALTH CARE FACILITY NURSES STATION ELEC EQUIP,NECB-H-ELECTRIC-EQUIPMENT,SP-ER_NURSESTN_LOBBY_FLR_1 SYS-3 FLR-2 SCH-H HPLCMT-EAST ZN,1235.61,61.8,3090.149,2.501,50.000,0.000,0.500,0.000,0.500,General,2781.134,2781.134
 ElectricEquipment Internal Gains Nominal, SP-ICU_NURSESTN_LOBBY_FLR_2 SYS-3 FLR-3 SCH-H HPLCMT-CORE ZN SPACE FUNCTION HEALTH CARE FACILITY NURSES STATION ELEC EQUIP,NECB-H-ELECTRIC-EQUIPMENT,SP-ICU_NURSESTN_LOBBY_FLR_2 SYS-3 FLR-3 SCH-H HPLCMT-CORE ZN,668.77,33.5,1672.527,2.501,50.000,0.000,0.500,0.000,0.500,General,1505.274,1505.274
 ElectricEquipment Internal Gains Nominal, SP-NURSESTN_LOBBY_FLR_3 SYS-3 FLR-4 SCH-H HPLCMT-CORE ZN SPACE FUNCTION HEALTH CARE FACILITY NURSES STATION ELEC EQUIP,NECB-H-ELECTRIC-EQUIPMENT,SP-NURSESTN_LOBBY_FLR_3 SYS-3 FLR-4 SCH-H HPLCMT-CORE ZN,905.80,45.3,2265.335,2.501,50.000,0.000,0.500,0.000,0.500,General,2038.801,2038.801
 ElectricEquipment Internal Gains Nominal, SP-NURSESTN_LOBBY_FLR_4 SYS-3 FLR-5 SCH-H HPLCMT-CORE ZN SPACE FUNCTION HEALTH CARE FACILITY NURSES STATION ELEC EQUIP,NECB-H-ELECTRIC-EQUIPMENT,SP-NURSESTN_LOBBY_FLR_4 SYS-3 FLR-5 SCH-H HPLCMT-CORE ZN,905.80,45.3,2265.335,2.501,50.000,0.000,0.500,0.000,0.500,General,2038.801,2038.801
 ElectricEquipment Internal Gains Nominal, SP-NURSESTN_LOBBY_FLR_5 SYS-3 FLR-7 SCH-H HPLCMT-SOUTH ZN SPACE FUNCTION HEALTH CARE FACILITY NURSES STATION ELEC EQUIP,NECB-H-ELECTRIC-EQUIPMENT,SP-NURSESTN_LOBBY_FLR_5 SYS-3 FLR-7 SCH-H HPLCMT-SOUTH ZN,1040.51,52.0,2602.230,2.501,50.000,0.000,0.500,0.000,0.500,General,2342.007,2342.007
 ElectricEquipment Internal Gains Nominal, SP-OR_NURSESTN_LOBBY_FLR_2 SYS-3 FLR-3 SCH-H HPLCMT-SOUTH ZN SPACE FUNCTION HEALTH CARE FACILITY NURSES STATION ELEC EQUIP,NECB-H-ELECTRIC-EQUIPMENT,SP-OR_NURSESTN_LOBBY_FLR_2 SYS-3 FLR-3 SCH-H HPLCMT-SOUTH ZN,1012.64,50.7,2532.528,2.501,50.000,0.000,0.500,0.000,0.500,General,2279.275,2279.275
 ElectricEquipment Internal Gains Nominal, SP-ER_EXAM1_MULT4_FLR_1 SYS-3 FLR-2 SCH-H HPLCMT-SOUTH ZN SPACE FUNCTION HEALTH CARE FACILITY OPERATING ROOM ELEC EQUIP,NECB-H-ELECTRIC-EQUIPMENT,SP-ER_EXAM1_MULT4_FLR_1 SYS-3 FLR-2 SCH-H HPLCMT-SOUTH ZN,27.87,1.4,278.810,10.004,200.000,0.000,0.500,0.000,0.500,General,250.929,250.929
 ElectricEquipment Internal Gains Nominal, SP-ER_EXAM3_MULT4_FLR_1 SYS-3 FLR-2 SCH-H HPLCMT-EAST ZN SPACE FUNCTION HEALTH CARE FACILITY OPERATING ROOM ELEC EQUIP,NECB-H-ELECTRIC-EQUIPMENT,SP-ER_EXAM3_MULT4_FLR_1 SYS-3 FLR-2 SCH-H HPLCMT-EAST ZN,27.87,1.4,278.810,10.004,200.000,0.000,0.500,0.000,0.500,General,250.929,250.929
 ElectricEquipment Internal Gains Nominal, SP-ER_TRAUMA1_FLR_1 SYS-3 FLR-2 SCH-H HPLCMT-SOUTH ZN SPACE FUNCTION HEALTH CARE FACILITY OPERATING ROOM ELEC EQUIP,NECB-H-ELECTRIC-EQUIPMENT,SP-ER_TRAUMA1_FLR_1 SYS-3 FLR-2 SCH-H HPLCMT-SOUTH ZN,27.87,1.4,278.810,10.004,200.000,0.000,0.500,0.000,0.500,General,250.929,250.929
 ElectricEquipment Internal Gains Nominal, SP-ER_TRAUMA2_FLR_1 SYS-3 FLR-2 SCH-H HPLCMT-NORTH ZN SPACE FUNCTION HEALTH CARE FACILITY OPERATING ROOM ELEC EQUIP,NECB-H-ELECTRIC-EQUIPMENT,SP-ER_TRAUMA2_FLR_1 SYS-3 FLR-2 SCH-H HPLCMT-NORTH ZN,27.87,1.4,278.810,10.004,200.000,0.000,0.500,0.000,0.500,General,250.929,250.929
 ElectricEquipment Internal Gains Nominal, SP-ER_TRIAGE_MULT4_FLR_1 SYS-3 FLR-2 SCH-H HPLCMT-NORTH ZN SPACE FUNCTION HEALTH CARE FACILITY OPERATING ROOM ELEC EQUIP,NECB-H-ELECTRIC-EQUIPMENT,SP-ER_TRIAGE_MULT4_FLR_1 SYS-3 FLR-2 SCH-H HPLCMT-NORTH ZN,27.87,1.4,278.810,10.004,200.000,0.000,0.500,0.000,0.500,General,250.929,250.929
 ElectricEquipment Internal Gains Nominal, SP-OR1_FLR_2 SYS-3 FLR-3 SCH-H HPLCMT-NORTH ZN SPACE FUNCTION HEALTH CARE FACILITY OPERATING ROOM ELEC EQUIP,NECB-H-ELECTRIC-EQUIPMENT,SP-OR1_FLR_2 SYS-3 FLR-3 SCH-H HPLCMT-NORTH ZN,55.74,2.8,557.621,10.004,200.000,0.000,0.500,0.000,0.500,General,501.859,501.859
 ElectricEquipment Internal Gains Nominal, SP-OR2_MULT5_FLR_2 SYS-3 FLR-3 SCH-H HPLCMT-EAST ZN SPACE FUNCTION HEALTH CARE FACILITY OPERATING ROOM ELEC EQUIP,NECB-H-ELECTRIC-EQUIPMENT,SP-OR2_MULT5_FLR_2 SYS-3 FLR-3 SCH-H HPLCMT-EAST ZN,55.74,2.8,557.621,10.004,200.000,0.000,0.500,0.000,0.500,General,501.859,501.859
 ElectricEquipment Internal Gains Nominal, SP-OR3_FLR_2 SYS-3 FLR-3 SCH-H HPLCMT-NORTH ZN SPACE FUNCTION HEALTH CARE FACILITY OPERATING ROOM ELEC EQUIP,NECB-H-ELECTRIC-EQUIPMENT,SP-OR3_FLR_2 SYS-3 FLR-3 SCH-H HPLCMT-NORTH ZN,55.74,2.8,557.621,10.004,200.000,0.000,0.500,0.000,0.500,General,501.859,501.859
 ElectricEquipment Internal Gains Nominal, SP-OR4_FLR_2 SYS-3 FLR-3 SCH-H HPLCMT-CORE ZN SPACE FUNCTION HEALTH CARE FACILITY OPERATING ROOM ELEC EQUIP,NECB-H-ELECTRIC-EQUIPMENT,SP-OR4_FLR_2 SYS-3 FLR-3 SCH-H HPLCMT-CORE ZN,222.97,11.2,2230.483,10.004,200.000,0.000,0.500,0.000,0.500,General,2007.435,2007.435
 ElectricEquipment Internal Gains Nominal, SP-IC_PATROOM1_MULT5_FLR_2 SYS-3 FLR-3 SCH-H HPLCMT-NORTH ZN SPACE FUNCTION HEALTH CARE FACILITY PATIENT ROOM ELEC EQUIP,NECB-H-ELECTRIC-EQUIPMENT,SP-IC_PATROOM1_MULT5_FLR_2 SYS-3 FLR-3 SCH-H HPLCMT-NORTH ZN,20.90,1.0,209.108,10.004,200.000,0.000,0.500,0.000,0.500,General,188.197,188.197
 ElectricEquipment Internal Gains Nominal, SP-IC_PATROOM2_FLR_2 SYS-3 FLR-3 SCH-H HPLCMT-NORTH ZN SPACE FUNCTION HEALTH CARE FACILITY PATIENT ROOM ELEC EQUIP,NECB-H-ELECTRIC-EQUIPMENT,SP-IC_PATROOM2_FLR_2 SYS-3 FLR-3 SCH-H HPLCMT-NORTH ZN,27.87,1.4,278.810,10.004,200.000,0.000,0.500,0.000,0.500,General,250.929,250.929
 ElectricEquipment Internal Gains Nominal, SP-IC_PATROOM3_MULT6_FLR_2 SYS-3 FLR-3 SCH-H HPLCMT-WEST ZN SPACE FUNCTION HEALTH CARE FACILITY PATIENT ROOM ELEC EQUIP,NECB-H-ELECTRIC-EQUIPMENT,SP-IC_PATROOM3_MULT6_FLR_2 SYS-3 FLR-3 SCH-H HPLCMT-WEST ZN,20.90,1.0,209.108,10.004,200.000,0.000,0.500,0.000,0.500,General,188.197,188.197
 ElectricEquipment Internal Gains Nominal, SP-PATROOM1_MULT10_FLR_3 SYS-3 FLR-4 SCH-H HPLCMT-SOUTH ZN SPACE FUNCTION HEALTH CARE FACILITY PATIENT ROOM ELEC EQUIP,NECB-H-ELECTRIC-EQUIPMENT,SP-PATROOM1_MULT10_FLR_3 SYS-3 FLR-4 SCH-H HPLCMT-SOUTH ZN,20.90,1.0,209.108,10.004,200.000,0.000,0.500,0.000,0.500,General,188.197,188.197
 ElectricEquipment Internal Gains Nominal, SP-PATROOM1_MULT10_FLR_4 SYS-3 FLR-5 SCH-H HPLCMT-SOUTH ZN SPACE FUNCTION HEALTH CARE FACILITY PATIENT ROOM ELEC EQUIP,NECB-H-ELECTRIC-EQUIPMENT,SP-PATROOM1_MULT10_FLR_4 SYS-3 FLR-5 SCH-H HPLCMT-SOUTH ZN,20.90,1.0,209.108,10.004,200.000,0.000,0.500,0.000,0.500,General,188.197,188.197
 ElectricEquipment Internal Gains Nominal, SP-PATROOM2_FLR_3 SYS-3 FLR-4 SCH-H HPLCMT-SOUTH ZN SPACE FUNCTION HEALTH CARE FACILITY PATIENT ROOM ELEC EQUIP,NECB-H-ELECTRIC-EQUIPMENT,SP-PATROOM2_FLR_3 SYS-3 FLR-4 SCH-H HPLCMT-SOUTH ZN,34.84,1.7,348.513,10.004,200.000,0.000,0.500,0.000,0.500,General,313.662,313.662
 ElectricEquipment Internal Gains Nominal, SP-PATROOM2_FLR_4 SYS-3 FLR-5 SCH-H HPLCMT-SOUTH ZN SPACE FUNCTION HEALTH CARE FACILITY PATIENT ROOM ELEC EQUIP,NECB-H-ELECTRIC-EQUIPMENT,SP-PATROOM2_FLR_4 SYS-3 FLR-5 SCH-H HPLCMT-SOUTH ZN,34.84,1.7,348.513,10.004,200.000,0.000,0.500,0.000,0.500,General,313.662,313.662
 ElectricEquipment Internal Gains Nominal, SP-PATROOM3_MULT10_FLR_3 SYS-3 FLR-4 SCH-H HPLCMT-EAST ZN SPACE FUNCTION HEALTH CARE FACILITY PATIENT ROOM ELEC EQUIP,NECB-H-ELECTRIC-EQUIPMENT,SP-PATROOM3_MULT10_FLR_3 SYS-3 FLR-4 SCH-H HPLCMT-EAST ZN,20.21,1.0,202.156,10.004,200.000,0.000,0.500,0.000,0.500,General,181.940,181.940
 ElectricEquipment Internal Gains Nominal, SP-PATROOM3_MULT10_FLR_4 SYS-3 FLR-5 SCH-H HPLCMT-EAST ZN SPACE FUNCTION HEALTH CARE FACILITY PATIENT ROOM ELEC EQUIP,NECB-H-ELECTRIC-EQUIPMENT,SP-PATROOM3_MULT10_FLR_4 SYS-3 FLR-5 SCH-H HPLCMT-EAST ZN,20.21,1.0,202.156,10.004,200.000,0.000,0.500,0.000,0.500,General,181.940,181.940
 ElectricEquipment Internal Gains Nominal, SP-PATROOM4_FLR_3 SYS-3 FLR-4 SCH-H HPLCMT-NORTH ZN SPACE FUNCTION HEALTH CARE FACILITY PATIENT ROOM ELEC EQUIP,NECB-H-ELECTRIC-EQUIPMENT,SP-PATROOM4_FLR_3 SYS-3 FLR-4 SCH-H HPLCMT-NORTH ZN,34.84,1.7,348.513,10.004,200.000,0.000,0.500,0.000,0.500,General,313.662,313.662
 ElectricEquipment Internal Gains Nominal, SP-PATROOM4_FLR_4 SYS-3 FLR-5 SCH-H HPLCMT-NORTH ZN SPACE FUNCTION HEALTH CARE FACILITY PATIENT ROOM ELEC EQUIP,NECB-H-ELECTRIC-EQUIPMENT,SP-PATROOM4_FLR_4 SYS-3 FLR-5 SCH-H HPLCMT-NORTH ZN,34.84,1.7,348.513,10.004,200.000,0.000,0.500,0.000,0.500,General,313.662,313.662
 ElectricEquipment Internal Gains Nominal, SP-PATROOM5_MULT10_FLR_3 SYS-3 FLR-4 SCH-H HPLCMT-NORTH ZN SPACE FUNCTION HEALTH CARE FACILITY PATIENT ROOM ELEC EQUIP,NECB-H-ELECTRIC-EQUIPMENT,SP-PATROOM5_MULT10_FLR_3 SYS-3 FLR-4 SCH-H HPLCMT-NORTH ZN,20.90,1.0,209.108,10.004,200.000,0.000,0.500,0.000,0.500,General,188.197,188.197
 ElectricEquipment Internal Gains Nominal, SP-PATROOM5_MULT10_FLR_4 SYS-3 FLR-5 SCH-H HPLCMT-NORTH ZN SPACE FUNCTION HEALTH CARE FACILITY PATIENT ROOM ELEC EQUIP,NECB-H-ELECTRIC-EQUIPMENT,SP-PATROOM5_MULT10_FLR_4 SYS-3 FLR-5 SCH-H HPLCMT-NORTH ZN,20.90,1.0,209.108,10.004,200.000,0.000,0.500,0.000,0.500,General,188.197,188.197
 ElectricEquipment Internal Gains Nominal, SP-PATROOM6_FLR_3 SYS-3 FLR-4 SCH-H HPLCMT-SOUTH ZN SPACE FUNCTION HEALTH CARE FACILITY PATIENT ROOM ELEC EQUIP,NECB-H-ELECTRIC-EQUIPMENT,SP-PATROOM6_FLR_3 SYS-3 FLR-4 SCH-H HPLCMT-SOUTH ZN,27.87,1.4,278.810,10.004,200.000,0.000,0.500,0.000,0.500,General,250.929,250.929
 ElectricEquipment Internal Gains Nominal, SP-PATROOM6_FLR_4 SYS-3 FLR-5 SCH-H HPLCMT-SOUTH ZN SPACE FUNCTION HEALTH CARE FACILITY PATIENT ROOM ELEC EQUIP,NECB-H-ELECTRIC-EQUIPMENT,SP-PATROOM6_FLR_4 SYS-3 FLR-5 SCH-H HPLCMT-SOUTH ZN,27.87,1.4,278.810,10.004,200.000,0.000,0.500,0.000,0.500,General,250.929,250.929
 ElectricEquipment Internal Gains Nominal, SP-PATROOM7_MULT10_FLR_3 SYS-3 FLR-4 SCH-H HPLCMT-WEST ZN SPACE FUNCTION HEALTH CARE FACILITY PATIENT ROOM ELEC EQUIP,NECB-H-ELECTRIC-EQUIPMENT,SP-PATROOM7_MULT10_FLR_3 SYS-3 FLR-4 SCH-H HPLCMT-WEST ZN,20.21,1.0,202.156,10.004,200.000,0.000,0.500,0.000,0.500,General,181.940,181.940
 ElectricEquipment Internal Gains Nominal, SP-PATROOM7_MULT10_FLR_4 SYS-3 FLR-5 SCH-H HPLCMT-WEST ZN SPACE FUNCTION HEALTH CARE FACILITY PATIENT ROOM ELEC EQUIP,NECB-H-ELECTRIC-EQUIPMENT,SP-PATROOM7_MULT10_FLR_4 SYS-3 FLR-5 SCH-H HPLCMT-WEST ZN,20.21,1.0,202.156,10.004,200.000,0.000,0.500,0.000,0.500,General,181.940,181.940
 ElectricEquipment Internal Gains Nominal, SP-PATROOM8_FLR_3 SYS-3 FLR-4 SCH-H HPLCMT-NORTH ZN SPACE FUNCTION HEALTH CARE FACILITY PATIENT ROOM ELEC EQUIP,NECB-H-ELECTRIC-EQUIPMENT,SP-PATROOM8_FLR_3 SYS-3 FLR-4 SCH-H HPLCMT-NORTH ZN,27.87,1.4,278.810,10.004,200.000,0.000,0.500,0.000,0.500,General,250.929,250.929
 ElectricEquipment Internal Gains Nominal, SP-PATROOM8_FLR_4 SYS-3 FLR-5 SCH-H HPLCMT-NORTH ZN SPACE FUNCTION HEALTH CARE FACILITY PATIENT ROOM ELEC EQUIP,NECB-H-ELECTRIC-EQUIPMENT,SP-PATROOM8_FLR_4 SYS-3 FLR-5 SCH-H HPLCMT-NORTH ZN,27.87,1.4,278.810,10.004,200.000,0.000,0.500,0.000,0.500,General,250.929,250.929
 ElectricEquipment Internal Gains Nominal, SP-PHYSTHERAPY_FLR_3 SYS-3 FLR-4 SCH-C HPLCMT-CORE ZN SPACE FUNCTION HEALTH CARE FACILITY PHYSICAL THERAPY ROOM ELEC EQUIP,NECB-C-ELECTRIC-EQUIPMENT,SP-PHYSTHERAPY_FLR_3 SYS-3 FLR-4 SCH-C HPLCMT-CORE ZN,487.74,24.4,4879.182,10.004,200.000,0.000,0.500,0.000,0.500,General,243.959,4391.264
 ElectricEquipment Internal Gains Nominal, SP-ICU_FLR_2 SYS-3 FLR-3 SCH-H HPLCMT-SOUTH ZN SPACE FUNCTION HEALTH CARE FACILITY RECOVERY ROOM ELEC EQUIP,NECB-H-ELECTRIC-EQUIPMENT,SP-ICU_FLR_2 SYS-3 FLR-3 SCH-H HPLCMT-SOUTH ZN,617.96,30.9,6181.891,10.004,200.000,0.000,0.500,0.000,0.500,General,5563.702,5563.702
 ElectricEquipment Internal Gains Nominal, SP-BASEMENT SYS-3 FLR-1 SCH-A HPLCMT-NORTH ZN SPACE FUNCTION LABORATORY - OTHER ELEC EQUIP,NECB-A-ELECTRIC-EQUIPMENT,SP-BASEMENT SYS-3 FLR-1 SCH-A HPLCMT-NORTH ZN,3739.35,187.0,37407.063,10.004,200.000,0.000,0.500,0.000,0.500,General,7481.413,33666.357
 ElectricEquipment Internal Gains Nominal, SP-LAB_FLR_3 SYS-3 FLR-4 SCH-A HPLCMT-CORE ZN SPACE FUNCTION LABORATORY - OTHER ELEC EQUIP,NECB-A-ELECTRIC-EQUIPMENT,SP-LAB_FLR_3 SYS-3 FLR-4 SCH-A HPLCMT-CORE ZN,264.77,13.2,2648.699,10.004,200.000,0.000,0.500,0.000,0.500,General,529.740,2383.829
 ElectricEquipment Internal Gains Nominal, SP-LAB_FLR_4 SYS-3 FLR-5 SCH-A HPLCMT-CORE ZN SPACE FUNCTION LABORATORY - OTHER ELEC EQUIP,NECB-A-ELECTRIC-EQUIPMENT,SP-LAB_FLR_4 SYS-3 FLR-5 SCH-A HPLCMT-CORE ZN,264.77,13.2,2648.699,10.004,200.000,0.000,0.500,0.000,0.500,General,529.740,2383.829
 ElectricEquipment Internal Gains Nominal, SP-LOBBY_RECORDS_FLR_1 SYS-6 FLR-2 SCH-A HPLCMT-WEST ZN SPACE FUNCTION OFFICE ENCLOSED > 25 M2 ELEC EQUIP,NECB-A-ELECTRIC-EQUIPMENT,SP-LOBBY_RECORDS_FLR_1 SYS-6 FLR-2 SCH-A HPLCMT-WEST ZN,1474.81,73.8,11065.099,7.503,150.000,0.000,0.500,0.000,0.500,General,2213.020,9958.589
 ElectricEquipment Internal Gains Nominal, SP-OFFICE1_FLR_5 SYS-6 FLR-7 SCH-A HPLCMT-SOUTH ZN SPACE FUNCTION OFFICE ENCLOSED > 25 M2 ELEC EQUIP,NECB-A-ELECTRIC-EQUIPMENT,SP-OFFICE1_FLR_5 SYS-6 FLR-7 SCH-A HPLCMT-SOUTH ZN,69.70,3.5,522.907,7.503,150.000,0.000,0.500,0.000,0.500,General,104.581,470.616
 ElectricEquipment Internal Gains Nominal, SP-OFFICE1_MULT4_FLR_1 SYS-6 FLR-2 SCH-A HPLCMT-SOUTH ZN SPACE FUNCTION OFFICE ENCLOSED > 25 M2 ELEC EQUIP,NECB-A-ELECTRIC-EQUIPMENT,SP-OFFICE1_MULT4_FLR_1 SYS-6 FLR-2 SCH-A HPLCMT-SOUTH ZN,13.94,0.7,104.554,7.503,150.000,0.000,0.500,0.000,0.500,General,20.911,94.099
 ElectricEquipment Internal Gains Nominal, SP-OFFICE2_MULT5_FLR_5 SYS-6 FLR-7 SCH-A HPLCMT-WEST ZN SPACE FUNCTION OFFICE ENCLOSED > 25 M2 ELEC EQUIP,NECB-A-ELECTRIC-EQUIPMENT,SP-OFFICE2_MULT5_FLR_5 SYS-6 FLR-7 SCH-A HPLCMT-WEST ZN,69.66,3.5,522.632,7.503,150.000,0.000,0.500,0.000,0.500,General,104.526,470.369
 ElectricEquipment Internal Gains Nominal, SP-OFFICE3_FLR_5 SYS-6 FLR-7 SCH-A HPLCMT-NORTH ZN SPACE FUNCTION OFFICE ENCLOSED > 25 M2 ELEC EQUIP,NECB-A-ELECTRIC-EQUIPMENT,SP-OFFICE3_FLR_5 SYS-6 FLR-7 SCH-A HPLCMT-NORTH ZN,69.68,3.5,522.770,7.503,150.000,0.000,0.500,0.000,0.500,General,104.554,470.493
 ElectricEquipment Internal Gains Nominal, SP-OFFICE4_MULT6_FLR_5 SYS-6 FLR-7 SCH-A HPLCMT-NORTH ZN SPACE FUNCTION OFFICE ENCLOSED > 25 M2 ELEC EQUIP,NECB-A-ELECTRIC-EQUIPMENT,SP-OFFICE4_MULT6_FLR_5 SYS-6 FLR-7 SCH-A HPLCMT-NORTH ZN,13.94,0.7,104.554,7.503,150.000,0.000,0.500,0.000,0.500,General,20.911,94.099
! <Shadowing/Sun Position Calculations Annual Simulations>, Calculation Method, Value {days}, Allowable Number Figures in Shadow Overlap {}, Polygon Clipping Algorithm, Sky Diffuse Modeling Algorithm, External Shading Calculation Method, Output External Shading Calculation Results, Disable Self-Shading Within Shading Zone Groups, Disable Self-Shading From Shading Zone Groups to Other Zones
Shadowing/Sun Position Calculations Annual Simulations,AverageOverDaysInFrequency,20,15000,SutherlandHodgman,SimpleSkyDiffuseModeling,InternalCalculation,No,No,No
! <Water Heater Information>,Type,Name,Volume {m3},Maximum Capacity {W},Standard Rated Recovery Efficiency, Standard Rated Energy Factor
! <ZoneInfiltration Airflow Stats Nominal>,Name,Schedule Name,Zone Name, Zone Floor Area {m2}, # Zone Occupants,Design Volume Flow Rate {m3/s},Volume Flow Rate/Floor Area {m3/s/m2},Volume Flow Rate/Exterior Surface Area {m3/s/m2},ACH - Air Changes per Hour,Equation A - Constant Term Coefficient {},Equation B - Temperature Term Coefficient {1/C},Equation C - Velocity Term Coefficient {s/m}, Equation D - Velocity Squared Term Coefficient {s2/m2}
[...]
 Warmup Convergence Information,SP-NURSESTN_LOBBY_FLR_5 SYS-3 FLR-7 SCH-H HPLCMT-SOUTH ZN,SizingPeriod: VANCOUVER INTL AP ANN CLG .4% CONDNS DB=>MWB,1.1195574491E-002,2.1012259639E-002,Pass,Pass,1.0993176260E-002,1.4419533586E-002,Pass,Pass
 Warmup Convergence Information,SP-OFFICE1_FLR_5 SYS-6 FLR-7 SCH-A HPLCMT-SOUTH ZN,SizingPeriod: VANCOUVER INTL AP ANN CLG .4% CONDNS DB=>MWB,7.3039858834E-002,0.1836009318,Pass,Pass,7.6186447473E-002,0.2757536425,Pass,Pass
 Warmup Convergence Information,SP-OFFICE1_MULT4_FLR_1 SYS-6 FLR-2 SCH-A HPLCMT-SOUTH ZN,SizingPeriod: VANCOUVER INTL AP ANN CLG .4% CONDNS DB=>MWB,6.9348642777E-002,0.1797201943,Pass,Pass,0.2269493029,1.6931179854,Pass,Pass
 Warmup Convergence Information,SP-OFFICE2_MULT5_FLR_5 SYS-6 FLR-7 SCH-A HPLCMT-WEST ZN,SizingPeriod: VANCOUVER INTL AP ANN CLG .4% CONDNS DB=>MWB,8.3520544041E-002,0.2195173586,Pass,Pass,0.1299126538,0.3723806096,Pass,Pass
 Warmup Convergence Information,SP-OFFICE3_FLR_5 SYS-6 FLR-7 SCH-A HPLCMT-NORTH ZN,SizingPeriod: VANCOUVER INTL AP ANN CLG .4% CONDNS DB=>MWB,7.8028687492E-002,0.1801512110,Pass,Pass,8.1289714059E-002,0.3189202978,Pass,Pass
 Warmup Convergence Information,SP-OFFICE4_MULT6_FLR_5 SYS-6 FLR-7 SCH-A HPLCMT-NORTH ZN,SizingPeriod: VANCOUVER INTL AP ANN CLG .4% CONDNS DB=>MWB,6.2307003149E-002,0.1602800602,Pass,Pass,0.7315005823,7.8351068804,Pass,Pass
 Warmup Convergence Information,SP-OR1_FLR_2 SYS-3 FLR-3 SCH-H HPLCMT-NORTH ZN,SizingPeriod: VANCOUVER INTL AP ANN CLG .4% CONDNS DB=>MWB,9.0479026608E-004,3.0272617162E-003,Pass,Pass,2.2182563583E-003,3.3008929176E-003,Pass,Pass
 Warmup Convergence Information,SP-OR2_MULT5_FLR_2 SYS-3 FLR-3 SCH-H HPLCMT-EAST ZN,SizingPeriod: VANCOUVER INTL AP ANN CLG .4% CONDNS DB=>MWB,1.1039656742E-004,2.4002344174E-004,Pass,Pass,1.9910279843E-003,1.8475840105E-003,Pass,Pass
 Warmup Convergence Information,SP-OR3_FLR_2 SYS-3 FLR-3 SCH-H HPLCMT-NORTH ZN,SizingPeriod: VANCOUVER INTL AP ANN CLG .4% CONDNS DB=>MWB,9.7793104900E-004,2.8575282039E-003,Pass,Pass,1.1101153376E-003,2.2290859204E-003,Pass,Pass
 Warmup Convergence Information,SP-OR4_FLR_2 SYS-3 FLR-3 SCH-H HPLCMT-CORE ZN,SizingPeriod: VANCOUVER INTL AP ANN CLG .4% CONDNS DB=>MWB,5.6006088292E-003,1.1657293296E-002,Pass,Pass,2.1457046121E-003,4.0781469151E-003,Pass,Pass
 Warmup Convergence Information,SP-OR_NURSESTN_LOBBY_FLR_2 SYS-3 FLR-3 SCH-H HPLCMT-SOUTH ZN,SizingPeriod: VANCOUVER INTL AP ANN CLG .4% CONDNS DB=>MWB,6.2290632801E-005,1.8032885498E-004,Pass,Pass,3.9046417045E-003,3.1884280138E-003,Pass,Pass
 Warmup Convergence Information,SP-PATROOM1_MULT10_FLR_3 SYS-3 FLR-4 SCH-H HPLCMT-SOUTH ZN,SizingPeriod: VANCOUVER INTL AP ANN CLG .4% CONDNS DB=>MWB,4.0136434060E-005,7.0542819508E-005,Pass,Pass,1.8042701947E-002,1.2335104435E-002,Pass,Pass
 Warmup Convergence Information,SP-PATROOM1_MULT10_FLR_4 SYS-3 FLR-5 SCH-H HPLCMT-SOUTH ZN,SizingPeriod: VANCOUVER INTL AP ANN CLG .4% CONDNS DB=>MWB,4.0240410884E-005,7.0344822550E-005,Pass,Pass,1.8115167944E-002,1.2350383703E-002,Pass,Pass
 Warmup Convergence Information,SP-PATROOM2_FLR_3 SYS-3 FLR-4 SCH-H HPLCMT-SOUTH ZN,SizingPeriod: VANCOUVER INTL AP ANN CLG .4% CONDNS DB=>MWB,8.2604297880E-005,2.1620818862E-004,Pass,Pass,1.6698143875E-002,1.5640388476E-002,Pass,Pass
 Warmup Convergence Information,SP-PATROOM2_FLR_4 SYS-3 FLR-5 SCH-H HPLCMT-SOUTH ZN,SizingPeriod: VANCOUVER INTL AP ANN CLG .4% CONDNS DB=>MWB,7.9840955841E-005,2.0760897091E-004,Pass,Pass,1.7211520185E-002,1.5731500192E-002,Pass,Pass
 Warmup Convergence Information,SP-PATROOM3_MULT10_FLR_3 SYS-3 FLR-4 SCH-H HPLCMT-EAST ZN,SizingPeriod: VANCOUVER INTL AP ANN CLG .4% CONDNS DB=>MWB,7.8272154389E-005,1.9479253200E-004,Pass,Pass,2.3209897765E-002,2.5356775874E-002,Pass,Pass
 Warmup Convergence Information,SP-PATROOM3_MULT10_FLR_4 SYS-3 FLR-5 SCH-H HPLCMT-EAST ZN,SizingPeriod: VANCOUVER INTL AP ANN CLG .4% CONDNS DB=>MWB,7.8745021661E-005,1.9600039067E-004,Pass,Pass,2.3266837623E-002,2.5393728459E-002,Pass,Pass
 Warmup Convergence Information,SP-PATROOM4_FLR_3 SYS-3 FLR-4 SCH-H HPLCMT-NORTH ZN,SizingPeriod: VANCOUVER INTL AP ANN CLG .4% CONDNS DB=>MWB,9.4460598889E-005,2.6188021219E-004,Pass,Pass,1.5520924106E-002,1.9397537263E-002,Pass,Pass
 Warmup Convergence Information,SP-PATROOM4_FLR_4 SYS-3 FLR-5 SCH-H HPLCMT-NORTH ZN,SizingPeriod: VANCOUVER INTL AP ANN CLG .4% CONDNS DB=>MWB,9.3919484019E-005,2.5824507751E-004,Pass,Pass,1.5737775026E-002,2.0004815480E-002,Pass,Pass
 Warmup Convergence Information,SP-PATROOM5_MULT10_FLR_3 SYS-3 FLR-4 SCH-H HPLCMT-NORTH ZN,SizingPeriod: VANCOUVER INTL AP ANN CLG .4% CONDNS DB=>MWB,4.9211371004E-003,9.9805420929E-003,Pass,Pass,8.4595074506E-003,1.0190697877E-002,Pass,Pass
 Warmup Convergence Information,SP-PATROOM5_MULT10_FLR_4 SYS-3 FLR-5 SCH-H HPLCMT-NORTH ZN,SizingPeriod: VANCOUVER INTL AP ANN CLG .4% CONDNS DB=>MWB,4.8611410060E-003,9.9317638250E-003,Pass,Pass,8.5402683044E-003,1.0344180075E-002,Pass,Pass
 Warmup Convergence Information,SP-PATROOM6_FLR_3 SYS-3 FLR-4 SCH-H HPLCMT-SOUTH ZN,SizingPeriod: VANCOUVER INTL AP ANN CLG .4% CONDNS DB=>MWB,4.2760164438E-005,7.1028906360E-005,Pass,Pass,1.8218231676E-002,1.4078071595E-002,Pass,Pass
 Warmup Convergence Information,SP-PATROOM6_FLR_4 SYS-3 FLR-5 SCH-H HPLCMT-SOUTH ZN,SizingPeriod: VANCOUVER INTL AP ANN CLG .4% CONDNS DB=>MWB,3.9493847880E-005,5.7598809993E-005,Pass,Pass,2.1028409110E-002,1.4336995021E-002,Pass,Pass
 Warmup Convergence Information,SP-PATROOM7_MULT10_FLR_3 SYS-3 FLR-4 SCH-H HPLCMT-WEST ZN,SizingPeriod: VANCOUVER INTL AP ANN CLG .4% CONDNS DB=>MWB,3.2326419029E-005,4.2075374921E-005,Pass,Pass,2.4288156947E-002,2.3090701576E-002,Pass,Pass
 Warmup Convergence Information,SP-PATROOM7_MULT10_FLR_4 SYS-3 FLR-5 SCH-H HPLCMT-WEST ZN,SizingPeriod: VANCOUVER INTL AP ANN CLG .4% CONDNS DB=>MWB,3.2541934421E-005,4.2123499471E-005,Pass,Pass,2.4360200945E-002,2.3091402733E-002,Pass,Pass
 Warmup Convergence Information,SP-PATROOM8_FLR_3 SYS-3 FLR-4 SCH-H HPLCMT-NORTH ZN,SizingPeriod: VANCOUVER INTL AP ANN CLG .4% CONDNS DB=>MWB,4.6981119884E-005,8.2248715260E-005,Pass,Pass,1.8437915570E-002,1.7586203472E-002,Pass,Pass
 Warmup Convergence Information,SP-PATROOM8_FLR_4 SYS-3 FLR-5 SCH-H HPLCMT-NORTH ZN,SizingPeriod: VANCOUVER INTL AP ANN CLG .4% CONDNS DB=>MWB,4.3004222324E-005,6.7249526103E-005,Pass,Pass,2.1391529674E-002,1.7302832770E-002,Pass,Pass
 Warmup Convergence Information,SP-PHYSTHERAPY_FLR_3 SYS-3 FLR-4 SCH-C HPLCMT-CORE ZN,SizingPeriod: VANCOUVER INTL AP ANN CLG .4% CONDNS DB=>MWB,2.1566492413E-002,3.9583182734E-002,Pass,Pass,1.6717092456E-002,5.0431988416E-002,Pass,Pass
 Warmup Convergence Information,SP-RADIOLOGY_FLR_4 SYS-3 FLR-5 SCH-H HPLCMT-CORE ZN,SizingPeriod: VANCOUVER INTL AP ANN CLG .4% CONDNS DB=>MWB,8.0832241360E-005,2.3659662098E-004,Pass,Pass,1.9687666275E-003,1.1838841243E-003,Pass,Pass
Environment,VANCOUVER INTL AP ANN HTG 99.6% CONDNS DB,SizingPeriod:DesignDay,12/21,12/21,WinterDesignDay,1,N/A,N/A,N/A,N/A,N/A,N/A
Environment:Daylight Saving,No,SizingPeriod:DesignDay
Environment:Design Day Data,-6.10,0.00,DefaultMultipliers,101273,100,3.0,0.00,No,No
Environment:Design Day Misc,355,1232.8,0.1424,5.7719E-002,1.0,2.45,-23.5,ASHRAEClearSky
Environment:WarmupDays,  6
 Warmup Convergence Information,SP-BASEMENT SYS-3 FLR-1 SCH-A HPLCMT-NORTH ZN,SizingPeriod: VANCOUVER INTL AP ANN HTG 99.6% CONDNS DB,5.5618697787E-002,0.2681131642,Pass,Pass,0.1839606942,1.1508134695,Pass,Pass
 Warmup Convergence Information,SP-CORRIDOR_FLR_1 SYS-3 FLR-2 SCH-B HPLCMT-NORTH ZN,SizingPeriod: VANCOUVER INTL AP ANN HTG 99.6% CONDNS DB,3.9944029493E-002,0.1567236930,Pass,Pass,9.6245313257E-002,0.4373912889,Pass,Pass
 Warmup Convergence Information,SP-CORRIDOR_FLR_2 SYS-3 FLR-3 SCH-B HPLCMT-NORTH ZN,SizingPeriod: VANCOUVER INTL AP ANN HTG 99.6% CONDNS DB,3.5866364974E-002,0.1470420268,Pass,Pass,7.7549202967E-002,0.4767264004,Pass,Pass
 Warmup Convergence Information,SP-CORRIDOR_FLR_5 SYS-3 FLR-7 SCH-B HPLCMT-NORTH ZN,SizingPeriod: VANCOUVER INTL AP ANN HTG 99.6% CONDNS DB,5.5556531827E-002,0.2305291757,Pass,Pass,0.1565189660,0.5113637344,Pass,Pass
 Warmup Convergence Information,SP-CORRIDOR_NW_FLR_3 SYS-3 FLR-4 SCH-B HPLCMT-NORTH ZN,SizingPeriod: VANCOUVER INTL AP ANN HTG 99.6% CONDNS DB,3.0259186269E-002,0.1418685041,Pass,Pass,8.7631815891E-002,0.6392270068,Pass,Pass
 Warmup Convergence Information,SP-CORRIDOR_NW_FLR_4 SYS-3 FLR-5 SCH-B HPLCMT-NORTH ZN,SizingPeriod: VANCOUVER INTL AP ANN HTG 99.6% CONDNS DB,3.6731449919E-002,0.1447276064,Pass,Pass,0.7317323713,7.6122561976,Pass,Pass
 Warmup Convergence Information,SP-CORRIDOR_SE_FLR_3 SYS-3 FLR-4 SCH-B HPLCMT-SOUTH ZN,SizingPeriod: VANCOUVER INTL AP ANN HTG 99.6% CONDNS DB,3.2723750914E-002,0.1431871209,Pass,Pass,7.2598178017E-002,0.4815409514,Pass,Pass
 Warmup Convergence Information,SP-CORRIDOR_SE_FLR_4 SYS-3 FLR-5 SCH-B HPLCMT-SOUTH ZN,SizingPeriod: VANCOUVER INTL AP ANN HTG 99.6% CONDNS DB,3.7289754824E-002,0.1466331939,Pass,Pass,0.1550788436,0.8193663345,Pass,Pass
 Warmup Convergence Information,SP-DINING_FLR_5 SYS-3 FLR-7 SCH-B HPLCMT-SOUTH ZN,SizingPeriod: VANCOUVER INTL AP ANN HTG 99.6% CONDNS DB,5.5570329841E-002,0.3023684545,Pass,Pass,0.8890175446,4.0736652235,Pass,Pass
 Warmup Convergence Information,SP-ER_EXAM1_MULT4_FLR_1 SYS-3 FLR-2 SCH-H HPLCMT-SOUTH ZN,SizingPeriod: VANCOUVER INTL AP ANN HTG 99.6% CONDNS DB,2.8749155569E-002,0.1665142812,Pass,Pass,1.9680862485E-002,9.1703352922E-002,Pass,Pass
 Warmup Convergence Information,SP-ER_EXAM3_MULT4_FLR_1 SYS-3 FLR-2 SCH-H HPLCMT-EAST ZN,SizingPeriod: VANCOUVER INTL AP ANN HTG 99.6% CONDNS DB,2.4681221493E-002,0.1509659976,Pass,Pass,1.4787424585E-002,6.7382463256E-002,Pass,Pass
 Warmup Convergence Information,SP-ER_NURSESTN_LOBBY_FLR_1 SYS-3 FLR-2 SCH-H HPLCMT-EAST ZN,SizingPeriod: VANCOUVER INTL AP ANN HTG 99.6% CONDNS DB,2.7787743755E-002,0.1461036170,Pass,Pass,8.5162756569E-002,0.6502526924,Pass,Pass
 Warmup Convergence Information,SP-ER_TRAUMA1_FLR_1 SYS-3 FLR-2 SCH-H HPLCMT-SOUTH ZN,SizingPeriod: VANCOUVER INTL AP ANN HTG 99.6% CONDNS DB,4.8307340854E-002,0.2291605630,Pass,Pass,5.3278883963E-002,0.2332986248,Pass,Pass
 Warmup Convergence Information,SP-ER_TRAUMA2_FLR_1 SYS-3 FLR-2 SCH-H HPLCMT-NORTH ZN,SizingPeriod: VANCOUVER INTL AP ANN HTG 99.6% CONDNS DB,4.8455775049E-002,0.2292234480,Pass,Pass,5.4114697439E-002,0.2366696809,Pass,Pass
 Warmup Convergence Information,SP-ER_TRIAGE_MULT4_FLR_1 SYS-3 FLR-2 SCH-H HPLCMT-NORTH ZN,SizingPeriod: VANCOUVER INTL AP ANN HTG 99.6% CONDNS DB,2.8749155569E-002,0.1665142812,Pass,Pass,1.9680862485E-002,9.1703352922E-002,Pass,Pass
 Warmup Convergence Information,SP-ICU_FLR_2 SYS-3 FLR-3 SCH-H HPLCMT-SOUTH ZN,SizingPeriod: VANCOUVER INTL AP ANN HTG 99.6% CONDNS DB,5.5601091954E-002,0.2643162002,Pass,Pass,5.3263758447E-002,0.2295851668,Pass,Pass
 Warmup Convergence Information,SP-ICU_NURSESTN_LOBBY_FLR_2 SYS-3 FLR-3 SCH-H HPLCMT-CORE ZN,SizingPeriod: VANCOUVER INTL AP ANN HTG 99.6% CONDNS DB,2.2258562355E-002,0.1186919454,Pass,Pass,3.4927763830E-002,0.2100545776,Pass,Pass
 Warmup Convergence Information,SP-IC_PATROOM1_MULT5_FLR_2 SYS-3 FLR-3 SCH-H HPLCMT-NORTH ZN,SizingPeriod: VANCOUVER INTL AP ANN HTG 99.6% CONDNS DB,2.2416584919E-002,0.1198470793,Pass,Pass,8.6741665699E-002,0.5875218217,Pass,Pass
 Warmup Convergence Information,SP-IC_PATROOM2_FLR_2 SYS-3 FLR-3 SCH-H HPLCMT-NORTH ZN,SizingPeriod: VANCOUVER INTL AP ANN HTG 99.6% CONDNS DB,5.5571941560E-002,0.3071692947,Pass,Pass,6.2244069300E-002,0.2024168752,Pass,Pass
 Warmup Convergence Information,SP-IC_PATROOM3_MULT6_FLR_2 SYS-3 FLR-3 SCH-H HPLCMT-WEST ZN,SizingPeriod: VANCOUVER INTL AP ANN HTG 99.6% CONDNS DB,5.5956094072E-002,0.2978287810,Pass,Pass,8.5358272225E-002,0.2131971876,Pass,Pass
 Warmup Convergence Information,SP-KITCHEN_FLR_5 SYS-3 FLR-7 SCH-B HPLCMT-NORTH ZN,SizingPeriod: VANCOUVER INTL AP ANN HTG 99.6% CONDNS DB,5.5559582003E-002,0.2657849783,Pass,Pass,0.2727464580,1.3888725374,Pass,Pass
 Warmup Convergence Information,SP-LAB_FLR_3 SYS-3 FLR-4 SCH-A HPLCMT-CORE ZN,SizingPeriod: VANCOUVER INTL AP ANN HTG 99.6% CONDNS DB,4.1409623907E-002,0.1859254604,Pass,Pass,0.1771100327,1.2388948426,Pass,Pass
 Warmup Convergence Information,SP-LAB_FLR_4 SYS-3 FLR-5 SCH-A HPLCMT-CORE ZN,SizingPeriod: VANCOUVER INTL AP ANN HTG 99.6% CONDNS DB,4.5817472664E-002,0.2006495986,Pass,Pass,0.5579314074,5.1898268216,Pass,Pass
 Warmup Convergence Information,SP-LOBBY_RECORDS_FLR_1 SYS-6 FLR-2 SCH-A HPLCMT-WEST ZN,SizingPeriod: VANCOUVER INTL AP ANN HTG 99.6% CONDNS DB,6.1011681949E-002,9.5403021293E-002,Pass,Pass,0.1117078331,0.4870473730,Pass,Pass
 Warmup Convergence Information,SP-NURSESTN_LOBBY_FLR_3 SYS-3 FLR-4 SCH-H HPLCMT-CORE ZN,SizingPeriod: VANCOUVER INTL AP ANN HTG 99.6% CONDNS DB,1.9813154935E-002,0.1112790378,Pass,Pass,2.3792036690E-002,0.1373043979,Pass,Pass
 Warmup Convergence Information,SP-NURSESTN_LOBBY_FLR_4 SYS-3 FLR-5 SCH-H HPLCMT-CORE ZN,SizingPeriod: VANCOUVER INTL AP ANN HTG 99.6% CONDNS DB,2.4085978831E-002,0.1273819215,Pass,Pass,4.0919550063E-002,0.2554556259,Pass,Pass
 Warmup Convergence Information,SP-NURSESTN_LOBBY_FLR_5 SYS-3 FLR-7 SCH-H HPLCMT-SOUTH ZN,SizingPeriod: VANCOUVER INTL AP ANN HTG 99.6% CONDNS DB,5.6344622217E-002,0.2198132900,Pass,Pass,0.4846370755,3.5017846009,Pass,Pass
 Warmup Convergence Information,SP-OFFICE1_FLR_5 SYS-6 FLR-7 SCH-A HPLCMT-SOUTH ZN,SizingPeriod: VANCOUVER INTL AP ANN HTG 99.6% CONDNS DB,5.6480242810E-002,0.3105188962,Pass,Pass,7.0533742710E-002,0.2628312469,Pass,Pass
 Warmup Convergence Information,SP-OFFICE1_MULT4_FLR_1 SYS-6 FLR-2 SCH-A HPLCMT-SOUTH ZN,SizingPeriod: VANCOUVER INTL AP ANN HTG 99.6% CONDNS DB,5.6321542564E-002,0.2693376480,Pass,Pass,0.2020643811,0.4722286600,Pass,Pass
 Warmup Convergence Information,SP-OFFICE2_MULT5_FLR_5 SYS-6 FLR-7 SCH-A HPLCMT-WEST ZN,SizingPeriod: VANCOUVER INTL AP ANN HTG 99.6% CONDNS DB,5.6398236223E-002,0.2915328756,Pass,Pass,0.1501401026,0.4836217068,Pass,Pass
 Warmup Convergence Information,SP-OFFICE3_FLR_5 SYS-6 FLR-7 SCH-A HPLCMT-NORTH ZN,SizingPeriod: VANCOUVER INTL AP ANN HTG 99.6% CONDNS DB,5.6416405672E-002,0.3114520228,Pass,Pass,6.3065861162E-002,0.2350638229,Pass,Pass
 Warmup Convergence Information,SP-OFFICE4_MULT6_FLR_5 SYS-6 FLR-7 SCH-A HPLCMT-NORTH ZN,SizingPeriod: VANCOUVER INTL AP ANN HTG 99.6% CONDNS DB,5.6367069379E-002,0.2847853234,Pass,Pass,0.1278831158,0.7128403480,Pass,Pass
 Warmup Convergence Information,SP-OR1_FLR_2 SYS-3 FLR-3 SCH-H HPLCMT-NORTH ZN,SizingPeriod: VANCOUVER INTL AP ANN HTG 99.6% CONDNS DB,4.9741472628E-002,0.2334576913,Pass,Pass,4.5389584995E-002,0.1947244451,Pass,Pass
 Warmup Convergence Information,SP-OR2_MULT5_FLR_2 SYS-3 FLR-3 SCH-H HPLCMT-EAST ZN,SizingPeriod: VANCOUVER INTL AP ANN HTG 99.6% CONDNS DB,1.8617399103E-002,0.1149580894,Pass,Pass,6.5109131585E-003,2.6434423915E-002,Pass,Pass
 Warmup Convergence Information,SP-OR3_FLR_2 SYS-3 FLR-3 SCH-H HPLCMT-NORTH ZN,SizingPeriod: VANCOUVER INTL AP ANN HTG 99.6% CONDNS DB,3.8751560435E-002,0.1876542455,Pass,Pass,2.6556635462E-002,0.1135898609,Pass,Pass
 Warmup Convergence Information,SP-OR4_FLR_2 SYS-3 FLR-3 SCH-H HPLCMT-CORE ZN,SizingPeriod: VANCOUVER INTL AP ANN HTG 99.6% CONDNS DB,3.3563389791E-002,0.1804603062,Pass,Pass,1.7452898045E-002,8.2607151179E-002,Pass,Pass
 Warmup Convergence Information,SP-OR_NURSESTN_LOBBY_FLR_2 SYS-3 FLR-3 SCH-H HPLCMT-SOUTH ZN,SizingPeriod: VANCOUVER INTL AP ANN HTG 99.6% CONDNS DB,2.8680407993E-002,0.1527449676,Pass,Pass,0.1286690201,1.0992487117,Pass,Pass
 Warmup Convergence Information,SP-PATROOM1_MULT10_FLR_3 SYS-3 FLR-4 SCH-H HPLCMT-SOUTH ZN,SizingPeriod: VANCOUVER INTL AP ANN HTG 99.6% CONDNS DB,5.5569057618E-002,0.2895476331,Pass,Pass,0.1708988031,0.3907935975,Pass,Pass
 Warmup Convergence Information,SP-PATROOM1_MULT10_FLR_4 SYS-3 FLR-5 SCH-H HPLCMT-SOUTH ZN,SizingPeriod: VANCOUVER INTL AP ANN HTG 99.6% CONDNS DB,5.5569428233E-002,0.2902382118,Pass,Pass,0.3322092449,1.6922343702,Pass,Pass
 Warmup Convergence Information,SP-PATROOM2_FLR_3 SYS-3 FLR-4 SCH-H HPLCMT-SOUTH ZN,SizingPeriod: VANCOUVER INTL AP ANN HTG 99.6% CONDNS DB,5.5575352957E-002,0.3143507753,Pass,Pass,7.8844157393E-002,0.2645340990,Pass,Pass
 Warmup Convergence Information,SP-PATROOM2_FLR_4 SYS-3 FLR-5 SCH-H HPLCMT-SOUTH ZN,SizingPeriod: VANCOUVER INTL AP ANN HTG 99.6% CONDNS DB,5.5576647452E-002,0.3159572061,Pass,Pass,0.4937798273,4.1010386473,Pass,Pass
 Warmup Convergence Information,SP-PATROOM3_MULT10_FLR_3 SYS-3 FLR-4 SCH-H HPLCMT-EAST ZN,SizingPeriod: VANCOUVER INTL AP ANN HTG 99.6% CONDNS DB,5.6069018684E-002,0.2952346504,Pass,Pass,0.1760319480,0.3977183015,Pass,Pass
 Warmup Convergence Information,SP-PATROOM3_MULT10_FLR_4 SYS-3 FLR-5 SCH-H HPLCMT-EAST ZN,SizingPeriod: VANCOUVER INTL AP ANN HTG 99.6% CONDNS DB,5.6059602693E-002,0.2958410583,Pass,Pass,0.4718268289,3.6279727225,Pass,Pass
 Warmup Convergence Information,SP-PATROOM4_FLR_3 SYS-3 FLR-4 SCH-H HPLCMT-NORTH ZN,SizingPeriod: VANCOUVER INTL AP ANN HTG 99.6% CONDNS DB,5.5577870832E-002,0.3079511416,Pass,Pass,8.0297232983E-002,0.2757933860,Pass,Pass
 Warmup Convergence Information,SP-PATROOM4_FLR_4 SYS-3 FLR-5 SCH-H HPLCMT-NORTH ZN,SizingPeriod: VANCOUVER INTL AP ANN HTG 99.6% CONDNS DB,5.5579210141E-002,0.3061998750,Pass,Pass,0.1619902707,0.8405799287,Pass,Pass
 Warmup Convergence Information,SP-PATROOM5_MULT10_FLR_3 SYS-3 FLR-4 SCH-H HPLCMT-NORTH ZN,SizingPeriod: VANCOUVER INTL AP ANN HTG 99.6% CONDNS DB,5.5578560885E-002,0.2399433383,Pass,Pass,0.6125961787,5.2638443444,Pass,Pass
 Warmup Convergence Information,SP-PATROOM5_MULT10_FLR_4 SYS-3 FLR-5 SCH-H HPLCMT-NORTH ZN,SizingPeriod: VANCOUVER INTL AP ANN HTG 99.6% CONDNS DB,5.5579386941E-002,0.2405598201,Pass,Pass,0.1824360306,0.6355925797,Pass,Pass
 Warmup Convergence Information,SP-PATROOM6_FLR_3 SYS-3 FLR-4 SCH-H HPLCMT-SOUTH ZN,SizingPeriod: VANCOUVER INTL AP ANN HTG 99.6% CONDNS DB,5.5571439198E-002,0.3212776573,Pass,Pass,0.4684897312,4.0183853008,Pass,Pass
 Warmup Convergence Information,SP-PATROOM6_FLR_4 SYS-3 FLR-5 SCH-H HPLCMT-SOUTH ZN,SizingPeriod: VANCOUVER INTL AP ANN HTG 99.6% CONDNS DB,5.5574040565E-002,0.3279065997,Pass,Pass,0.1571644727,0.6474634928,Pass,Pass
 Warmup Convergence Information,SP-PATROOM7_MULT10_FLR_3 SYS-3 FLR-4 SCH-H HPLCMT-WEST ZN,SizingPeriod: VANCOUVER INTL AP ANN HTG 99.6% CONDNS DB,5.5994198961E-002,0.2937712421,Pass,Pass,0.2661030546,1.0541777376,Pass,Pass
 Warmup Convergence Information,SP-PATROOM7_MULT10_FLR_4 SYS-3 FLR-5 SCH-H HPLCMT-WEST ZN,SizingPeriod: VANCOUVER INTL AP ANN HTG 99.6% CONDNS DB,5.5992529051E-002,0.2944317803,Pass,Pass,0.1331104344,0.2539837819,Pass,Pass
 Warmup Convergence Information,SP-PATROOM8_FLR_3 SYS-3 FLR-4 SCH-H HPLCMT-NORTH ZN,SizingPeriod: VANCOUVER INTL AP ANN HTG 99.6% CONDNS DB,5.5575010775E-002,0.3234604775,Pass,Pass,0.1444365110,0.4105363015,Pass,Pass
 Warmup Convergence Information,SP-PATROOM8_FLR_4 SYS-3 FLR-5 SCH-H HPLCMT-NORTH ZN,SizingPeriod: VANCOUVER INTL AP ANN HTG 99.6% CONDNS DB,5.5576823638E-002,0.3267900072,Pass,Pass,0.1472001387,0.5081199945,Pass,Pass
 Warmup Convergence Information,SP-PHYSTHERAPY_FLR_3 SYS-3 FLR-4 SCH-C HPLCMT-CORE ZN,SizingPeriod: VANCOUVER INTL AP ANN HTG 99.6% CONDNS DB,4.6900502505E-002,0.2128317799,Pass,Pass,8.6596554473E-002,0.4074788566,Pass,Pass
 Warmup Convergence Information,SP-RADIOLOGY_FLR_4 SYS-3 FLR-5 SCH-H HPLCMT-CORE ZN,SizingPeriod: VANCOUVER INTL AP ANN HTG 99.6% CONDNS DB,1.9391946208E-002,0.1134280097,Pass,Pass,1.4092596740E-002,7.6329470744E-002,Pass,Pass
! <Program Control Information:Threads/Parallel Sims>, Threading Supported,Maximum Number of Threads, Env Set Threads (OMP_NUM_THREADS), EP Env Set Threads (EP_OMP_NUM_THREADS), IDF Set Threads, Number of Threads Used (Interior Radiant Exchange), Number Nominal Surfaces, Number Parallel Sims
Program Control:Threads/Parallel Sims, No,1, N/A, N/A, N/A, N/A, N/A, N/A
End of Data
