Program Version,EnergyPlus, Version 8.9.0-eba93e8e1b, YMD=2018.09.18 16:58
! This file shows details about the branches, nodes, and other
! elements of the flow connections.
! This file is intended for use in "debugging" potential problems
! that may also be detected by the program, but may be more easily
! identified by "eye".
! This file is also intended to support software which draws a
! schematic diagram of the HVAC system.
! ===============================================================
! #Nodes,<Number of Unique Nodes>
 #Nodes,931
! <Node>,<NodeNumber>,<Node Name>,<Node Fluid Type>,<# Times Node Referenced After Definition>
 Node,1,NODE 73,Air,4
 Node,2,NODE 85,Air,4
 Node,3,NODE 176,Air,4
 Node,4,NODE 657,Air,4
 Node,5,NODE 332,Air,4
 Node,6,NODE 501,Air,4
 Node,7,NODE 345,Air,4
 Node,8,NODE 514,Air,4
 Node,9,NODE 683,Air,4
 Node,10,NODE 150,Air,4
 Node,11,NODE 124,Air,4
 Node,12,NODE 137,Air,4
 Node,13,NODE 163,Air,4
 Node,14,NODE 98,Air,4
 Node,15,NODE 111,Air,4
 Node,16,NODE 267,Air,4
 Node,17,NODE 293,Air,4
 Node,18,NODE 189,Air,4
 Node,19,NODE 202,Air,4
 Node,20,NODE 254,Air,4
 Node,21,NODE 670,Air,4
 Node,22,NODE 319,Air,4
 Node,23,NODE 488,Air,4
 Node,24,NODE 736,Air,4
 Node,25,NODE 462,Air,4
 Node,26,NODE 631,Air,4
 Node,27,NODE 696,Air,4
 Node,28,NODE 763,Air,4
 Node,29,NODE 754,Air,4
 Node,30,NODE 782,Air,4
 Node,31,NODE 789,Air,4
 Node,32,NODE 796,Air,4
 Node,33,NODE 215,Air,4
 Node,34,NODE 241,Air,4
 Node,35,NODE 228,Air,4
 Node,36,NODE 306,Air,4
 Node,37,NODE 280,Air,4
 Node,38,NODE 423,Air,4
 Node,39,NODE 592,Air,4
 Node,40,NODE 436,Air,4
 Node,41,NODE 605,Air,4
 Node,42,NODE 397,Air,4
 Node,43,NODE 566,Air,4
 Node,44,NODE 358,Air,4
 Node,45,NODE 527,Air,4
 Node,46,NODE 371,Air,4
 Node,47,NODE 540,Air,4
 Node,48,NODE 449,Air,4
 Node,49,NODE 618,Air,4
 Node,50,NODE 410,Air,4
 Node,51,NODE 579,Air,4
 Node,52,NODE 384,Air,4
 Node,53,NODE 553,Air,4
 Node,54,NODE 475,Air,4
 Node,55,NODE 644,Air,4
 Node,56,NODE 70,Air,10
 Node,57,NODE 71,Air,3
 Node,58,NODE 82,Air,10
 Node,59,NODE 83,Air,3
 Node,60,NODE 173,Air,10
 Node,61,NODE 174,Air,3
 Node,62,NODE 654,Air,10
 Node,63,NODE 655,Air,3
 Node,64,NODE 329,Air,10
 Node,65,NODE 330,Air,3
 Node,66,NODE 498,Air,10
 Node,67,NODE 499,Air,3
 Node,68,NODE 342,Air,10
 Node,69,NODE 343,Air,3
 Node,70,NODE 511,Air,10
 Node,71,NODE 512,Air,3
 Node,72,NODE 680,Air,10
 Node,73,NODE 681,Air,3
 Node,74,NODE 147,Air,10
 Node,75,NODE 148,Air,3
 Node,76,NODE 121,Air,10
 Node,77,NODE 122,Air,3
 Node,78,NODE 134,Air,10
 Node,79,NODE 135,Air,3
 Node,80,NODE 160,Air,10
 Node,81,NODE 161,Air,3
 Node,82,NODE 95,Air,10
 Node,83,NODE 96,Air,3
 Node,84,NODE 108,Air,10
 Node,85,NODE 109,Air,3
 Node,86,NODE 264,Air,10
 Node,87,NODE 265,Air,3
 Node,88,NODE 290,Air,10
 Node,89,NODE 291,Air,3
 Node,90,NODE 186,Air,10
 Node,91,NODE 187,Air,3
 Node,92,NODE 199,Air,10
 Node,93,NODE 200,Air,3
 Node,94,NODE 251,Air,10
 Node,95,NODE 252,Air,3
 Node,96,NODE 667,Air,10
 Node,97,NODE 668,Air,3
 Node,98,NODE 316,Air,10
 Node,99,NODE 317,Air,3
 Node,100,NODE 485,Air,10
 Node,101,NODE 486,Air,3
 Node,102,NODE 459,Air,10
 Node,103,NODE 460,Air,3
 Node,104,NODE 628,Air,10
 Node,105,NODE 629,Air,3
 Node,106,NODE 693,Air,10
 Node,107,NODE 694,Air,3
 Node,108,NODE 212,Air,10
 Node,109,NODE 213,Air,3
 Node,110,NODE 238,Air,10
 Node,111,NODE 239,Air,3
 Node,112,NODE 225,Air,10
 Node,113,NODE 226,Air,3
 Node,114,NODE 303,Air,10
 Node,115,NODE 304,Air,3
 Node,116,NODE 277,Air,10
 Node,117,NODE 278,Air,3
 Node,118,NODE 420,Air,10
 Node,119,NODE 421,Air,3
 Node,120,NODE 589,Air,10
 Node,121,NODE 590,Air,3
 Node,122,NODE 433,Air,10
 Node,123,NODE 434,Air,3
 Node,124,NODE 602,Air,10
 Node,125,NODE 603,Air,3
 Node,126,NODE 394,Air,10
 Node,127,NODE 395,Air,3
 Node,128,NODE 563,Air,10
 Node,129,NODE 564,Air,3
 Node,130,NODE 355,Air,10
 Node,131,NODE 356,Air,3
 Node,132,NODE 524,Air,10
 Node,133,NODE 525,Air,3
 Node,134,NODE 368,Air,10
 Node,135,NODE 369,Air,3
 Node,136,NODE 537,Air,10
 Node,137,NODE 538,Air,3
 Node,138,NODE 446,Air,10
 Node,139,NODE 447,Air,3
 Node,140,NODE 615,Air,10
 Node,141,NODE 616,Air,3
 Node,142,NODE 407,Air,10
 Node,143,NODE 408,Air,3
 Node,144,NODE 576,Air,10
 Node,145,NODE 577,Air,3
 Node,146,NODE 381,Air,10
 Node,147,NODE 382,Air,3
 Node,148,NODE 550,Air,10
 Node,149,NODE 551,Air,3
 Node,150,NODE 472,Air,10
 Node,151,NODE 473,Air,3
 Node,152,NODE 641,Air,10
 Node,153,NODE 642,Air,3
 Node,154,NODE 733,Air,12
 Node,155,NODE 734,Air,3
 Node,156,NODE 760,Air,12
 Node,157,NODE 761,Air,3
 Node,158,NODE 69,Air,3
 Node,159,NODE 78,Air,6
 Node,160,NODE 77,Air,6
 Node,161,NODE 76,Air,8
 Node,162,NODE 81,Air,3
 Node,163,NODE 90,Air,6
 Node,164,NODE 89,Air,6
 Node,165,NODE 88,Air,8
 Node,166,NODE 172,Air,3
 Node,167,NODE 181,Air,6
 Node,168,NODE 180,Air,6
 Node,169,NODE 179,Air,8
 Node,170,NODE 653,Air,3
 Node,171,NODE 662,Air,6
 Node,172,NODE 661,Air,6
 Node,173,NODE 660,Air,8
 Node,174,NODE 328,Air,3
 Node,175,NODE 337,Air,6
 Node,176,NODE 336,Air,6
 Node,177,NODE 335,Air,8
 Node,178,NODE 497,Air,3
 Node,179,NODE 506,Air,6
 Node,180,NODE 505,Air,6
 Node,181,NODE 504,Air,8
 Node,182,NODE 341,Air,3
 Node,183,NODE 350,Air,6
 Node,184,NODE 349,Air,6
 Node,185,NODE 348,Air,8
 Node,186,NODE 510,Air,3
 Node,187,NODE 519,Air,6
 Node,188,NODE 518,Air,6
 Node,189,NODE 517,Air,8
 Node,190,NODE 679,Air,3
 Node,191,NODE 688,Air,6
 Node,192,NODE 687,Air,6
 Node,193,NODE 686,Air,8
 Node,194,NODE 146,Air,3
 Node,195,NODE 155,Air,6
 Node,196,NODE 154,Air,6
 Node,197,NODE 153,Air,8
 Node,198,NODE 120,Air,3
 Node,199,NODE 129,Air,6
 Node,200,NODE 128,Air,6
 Node,201,NODE 127,Air,8
 Node,202,NODE 133,Air,3
 Node,203,NODE 142,Air,6
 Node,204,NODE 141,Air,6
 Node,205,NODE 140,Air,8
 Node,206,NODE 159,Air,3
 Node,207,NODE 168,Air,6
 Node,208,NODE 167,Air,6
 Node,209,NODE 166,Air,8
 Node,210,NODE 94,Air,3
 Node,211,NODE 103,Air,6
 Node,212,NODE 102,Air,6
 Node,213,NODE 101,Air,8
 Node,214,NODE 107,Air,3
 Node,215,NODE 116,Air,6
 Node,216,NODE 115,Air,6
 Node,217,NODE 114,Air,8
 Node,218,NODE 263,Air,3
 Node,219,NODE 272,Air,6
 Node,220,NODE 271,Air,6
 Node,221,NODE 270,Air,8
 Node,222,NODE 289,Air,3
 Node,223,NODE 298,Air,6
 Node,224,NODE 297,Air,6
 Node,225,NODE 296,Air,8
 Node,226,NODE 185,Air,3
 Node,227,NODE 194,Air,6
 Node,228,NODE 193,Air,6
 Node,229,NODE 192,Air,8
 Node,230,NODE 198,Air,3
 Node,231,NODE 207,Air,6
 Node,232,NODE 206,Air,6
 Node,233,NODE 205,Air,8
 Node,234,NODE 250,Air,3
 Node,235,NODE 259,Air,6
 Node,236,NODE 258,Air,6
 Node,237,NODE 257,Air,8
 Node,238,NODE 666,Air,3
 Node,239,NODE 675,Air,6
 Node,240,NODE 674,Air,6
 Node,241,NODE 673,Air,8
 Node,242,NODE 315,Air,3
 Node,243,NODE 324,Air,6
 Node,244,NODE 323,Air,6
 Node,245,NODE 322,Air,8
 Node,246,NODE 484,Air,3
 Node,247,NODE 493,Air,6
 Node,248,NODE 492,Air,6
 Node,249,NODE 491,Air,8
 Node,250,NODE 458,Air,3
 Node,251,NODE 467,Air,6
 Node,252,NODE 466,Air,6
 Node,253,NODE 465,Air,8
 Node,254,NODE 627,Air,3
 Node,255,NODE 636,Air,6
 Node,256,NODE 635,Air,6
 Node,257,NODE 634,Air,8
 Node,258,NODE 692,Air,3
 Node,259,NODE 701,Air,6
 Node,260,NODE 700,Air,6
 Node,261,NODE 699,Air,8
 Node,262,NODE 211,Air,3
 Node,263,NODE 220,Air,6
 Node,264,NODE 219,Air,6
 Node,265,NODE 218,Air,8
 Node,266,NODE 237,Air,3
 Node,267,NODE 246,Air,6
 Node,268,NODE 245,Air,6
 Node,269,NODE 244,Air,8
 Node,270,NODE 224,Air,3
 Node,271,NODE 233,Air,6
 Node,272,NODE 232,Air,6
 Node,273,NODE 231,Air,8
 Node,274,NODE 302,Air,3
 Node,275,NODE 311,Air,6
 Node,276,NODE 310,Air,6
 Node,277,NODE 309,Air,8
 Node,278,NODE 276,Air,3
 Node,279,NODE 285,Air,6
 Node,280,NODE 284,Air,6
 Node,281,NODE 283,Air,8
 Node,282,NODE 419,Air,3
 Node,283,NODE 428,Air,6
 Node,284,NODE 427,Air,6
 Node,285,NODE 426,Air,8
 Node,286,NODE 588,Air,3
 Node,287,NODE 597,Air,6
 Node,288,NODE 596,Air,6
 Node,289,NODE 595,Air,8
 Node,290,NODE 432,Air,3
 Node,291,NODE 441,Air,6
 Node,292,NODE 440,Air,6
 Node,293,NODE 439,Air,8
 Node,294,NODE 601,Air,3
 Node,295,NODE 610,Air,6
 Node,296,NODE 609,Air,6
 Node,297,NODE 608,Air,8
 Node,298,NODE 393,Air,3
 Node,299,NODE 402,Air,6
 Node,300,NODE 401,Air,6
 Node,301,NODE 400,Air,8
 Node,302,NODE 562,Air,3
 Node,303,NODE 571,Air,6
 Node,304,NODE 570,Air,6
 Node,305,NODE 569,Air,8
 Node,306,NODE 354,Air,3
 Node,307,NODE 363,Air,6
 Node,308,NODE 362,Air,6
 Node,309,NODE 361,Air,8
 Node,310,NODE 523,Air,3
 Node,311,NODE 532,Air,6
 Node,312,NODE 531,Air,6
 Node,313,NODE 530,Air,8
 Node,314,NODE 367,Air,3
 Node,315,NODE 376,Air,6
 Node,316,NODE 375,Air,6
 Node,317,NODE 374,Air,8
 Node,318,NODE 536,Air,3
 Node,319,NODE 545,Air,6
 Node,320,NODE 544,Air,6
 Node,321,NODE 543,Air,8
 Node,322,NODE 445,Air,3
 Node,323,NODE 454,Air,6
 Node,324,NODE 453,Air,6
 Node,325,NODE 452,Air,8
 Node,326,NODE 614,Air,3
 Node,327,NODE 623,Air,6
 Node,328,NODE 622,Air,6
 Node,329,NODE 621,Air,8
 Node,330,NODE 406,Air,3
 Node,331,NODE 415,Air,6
 Node,332,NODE 414,Air,6
 Node,333,NODE 413,Air,8
 Node,334,NODE 575,Air,3
 Node,335,NODE 584,Air,6
 Node,336,NODE 583,Air,6
 Node,337,NODE 582,Air,8
 Node,338,NODE 380,Air,3
 Node,339,NODE 389,Air,6
 Node,340,NODE 388,Air,6
 Node,341,NODE 387,Air,8
 Node,342,NODE 549,Air,3
 Node,343,NODE 558,Air,6
 Node,344,NODE 557,Air,6
 Node,345,NODE 556,Air,8
 Node,346,NODE 471,Air,3
 Node,347,NODE 480,Air,6
 Node,348,NODE 479,Air,6
 Node,349,NODE 478,Air,8
 Node,350,NODE 640,Air,3
 Node,351,NODE 649,Air,6
 Node,352,NODE 648,Air,6
 Node,353,NODE 647,Air,8
 Node,354,NODE 732,Air,2
 Node,355,NODE 745,Air,5
 Node,356,NODE 744,Air,5
 Node,357,NODE 743,Air,5
 Node,358,NODE 742,Air,9
 Node,359,NODE 759,Air,2
 Node,360,NODE 773,Air,5
 Node,361,NODE 772,Air,5
 Node,362,NODE 771,Air,5
 Node,363,NODE 770,Air,9
 Node,364,NODE 705,Water,2
 Node,365,NODE 711,Water,1
 Node,366,NODE 707,Water,1
 Node,367,NODE 712,Water,1
 Node,368,NODE 713,Water,1
 Node,369,NODE 714,Water,1
 Node,370,NODE 715,Water,1
 Node,371,NODE 716,Water,1
 Node,372,NODE 717,Water,1
 Node,373,NODE 706,Water,4
 Node,374,NODE 708,Water,2
 Node,375,CHILLED WATER LOOP DEMAND INLET PIPE NODE,Water,1
 Node,376,NODE 710,Water,2
 Node,377,NODE 739,Water,1
 Node,378,NODE 766,Water,2
 Node,379,NODE 767,Water,1
 Node,380,CHILLED WATER LOOP DEMAND BYPASS PIPE INLET NODE,Water,1
 Node,381,CHILLED WATER LOOP DEMAND BYPASS PIPE OUTLET NODE,Water,1
 Node,382,CHILLED WATER LOOP DEMAND OUTLET PIPE NODE,Water,1
 Node,383,NODE 709,Water,2
 Node,384,NODE 718,Water,2
 Node,385,NODE 724,Water,1
 Node,386,NODE 720,Water,1
 Node,387,NODE 725,Water,1
 Node,388,NODE 726,Water,1
 Node,389,NODE 727,Water,1
 Node,390,NODE 728,Water,1
 Node,391,NODE 719,Water,4
 Node,392,NODE 721,Water,2
 Node,393,CONDENSER WATER LOOP DEMAND INLET PIPE NODE,Water,1
 Node,394,NODE 723,Water,1
 Node,395,NODE 729,Water,1
 Node,396,NODE 730,Water,1
 Node,397,NODE 731,Water,1
 Node,398,CONDENSER WATER LOOP DEMAND BYPASS PIPE INLET NODE,Water,1
 Node,399,CONDENSER WATER LOOP DEMAND BYPASS PIPE OUTLET NODE,Water,1
 Node,400,CONDENSER WATER LOOP DEMAND OUTLET PIPE NODE,Water,1
 Node,401,NODE 722,Water,2
 Node,402,NODE 56,Water,2
 Node,403,NODE 62,Water,1
 Node,404,NODE 58,Water,1
 Node,405,NODE 63,Water,1
 Node,406,NODE 64,Water,1
 Node,407,NODE 65,Water,1
 Node,408,NODE 66,Water,1
 Node,409,NODE 67,Water,1
 Node,410,NODE 68,Water,1
 Node,411,NODE 57,Water,4
 Node,412,NODE 59,Water,2
 Node,413,HOT WATER LOOP DEMAND INLET PIPE NODE,Water,1
 Node,414,NODE 61,Water,1
 Node,415,NODE 80,Water,1
 Node,416,NODE 92,Water,1
 Node,417,NODE 93,Water,1
 Node,418,NODE 105,Water,1
 Node,419,NODE 106,Water,1
 Node,420,NODE 118,Water,1
 Node,421,NODE 119,Water,1
 Node,422,NODE 131,Water,1
 Node,423,NODE 132,Water,1
 Node,424,NODE 144,Water,1
 Node,425,NODE 145,Water,1
 Node,426,NODE 157,Water,1
 Node,427,NODE 158,Water,1
 Node,428,NODE 170,Water,1
 Node,429,NODE 171,Water,1
 Node,430,NODE 183,Water,1
 Node,431,NODE 184,Water,1
 Node,432,NODE 196,Water,1
 Node,433,NODE 197,Water,1
 Node,434,NODE 209,Water,1
 Node,435,NODE 210,Water,1
 Node,436,NODE 222,Water,1
 Node,437,NODE 223,Water,1
 Node,438,NODE 235,Water,1
 Node,439,NODE 236,Water,1
 Node,440,NODE 248,Water,1
 Node,441,NODE 249,Water,1
 Node,442,NODE 261,Water,1
 Node,443,NODE 262,Water,1
 Node,444,NODE 274,Water,1
 Node,445,NODE 275,Water,1
 Node,446,NODE 287,Water,1
 Node,447,NODE 288,Water,1
 Node,448,NODE 300,Water,1
 Node,449,NODE 301,Water,1
 Node,450,NODE 313,Water,1
 Node,451,NODE 314,Water,1
 Node,452,NODE 326,Water,1
 Node,453,NODE 327,Water,1
 Node,454,NODE 339,Water,1
 Node,455,NODE 340,Water,1
 Node,456,NODE 352,Water,1
 Node,457,NODE 353,Water,1
 Node,458,NODE 365,Water,1
 Node,459,NODE 366,Water,1
 Node,460,NODE 378,Water,1
 Node,461,NODE 379,Water,1
 Node,462,NODE 391,Water,1
 Node,463,NODE 392,Water,1
 Node,464,NODE 404,Water,1
 Node,465,NODE 405,Water,1
 Node,466,NODE 417,Water,1
 Node,467,NODE 418,Water,1
 Node,468,NODE 430,Water,1
 Node,469,NODE 431,Water,1
 Node,470,NODE 443,Water,1
 Node,471,NODE 444,Water,1
 Node,472,NODE 456,Water,1
 Node,473,NODE 457,Water,1
 Node,474,NODE 469,Water,1
 Node,475,NODE 470,Water,1
 Node,476,NODE 482,Water,1
 Node,477,NODE 483,Water,1
 Node,478,NODE 495,Water,1
 Node,479,NODE 496,Water,1
 Node,480,NODE 508,Water,1
 Node,481,NODE 509,Water,1
 Node,482,NODE 521,Water,1
 Node,483,NODE 522,Water,1
 Node,484,NODE 534,Water,1
 Node,485,NODE 535,Water,1
 Node,486,NODE 547,Water,1
 Node,487,NODE 548,Water,1
 Node,488,NODE 560,Water,1
 Node,489,NODE 561,Water,1
 Node,490,NODE 573,Water,1
 Node,491,NODE 574,Water,1
 Node,492,NODE 586,Water,1
 Node,493,NODE 587,Water,1
 Node,494,NODE 599,Water,1
 Node,495,NODE 600,Water,1
 Node,496,NODE 612,Water,1
 Node,497,NODE 613,Water,1
 Node,498,NODE 625,Water,1
 Node,499,NODE 626,Water,1
 Node,500,NODE 638,Water,1
 Node,501,NODE 639,Water,1
 Node,502,NODE 651,Water,1
 Node,503,NODE 652,Water,1
 Node,504,NODE 664,Water,1
 Node,505,NODE 665,Water,1
 Node,506,NODE 677,Water,1
 Node,507,NODE 678,Water,1
 Node,508,NODE 690,Water,1
 Node,509,NODE 691,Water,1
 Node,510,NODE 703,Water,1
 Node,511,NODE 704,Water,1
 Node,512,NODE 737,Water,2
 Node,513,NODE 738,Water,1
 Node,514,NODE 746,Water,1
 Node,515,NODE 747,Water,1
 Node,516,NODE 750,Water,1
 Node,517,NODE 751,Water,1
 Node,518,NODE 752,Water,1
 Node,519,NODE 753,Water,1
 Node,520,NODE 757,Water,1
 Node,521,NODE 758,Water,1
 Node,522,NODE 764,Water,2
 Node,523,NODE 765,Water,1
 Node,524,NODE 774,Water,1
 Node,525,NODE 775,Water,1
 Node,526,NODE 778,Water,1
 Node,527,NODE 779,Water,1
 Node,528,NODE 780,Water,1
 Node,529,NODE 781,Water,1
 Node,530,NODE 785,Water,1
 Node,531,NODE 786,Water,1
 Node,532,NODE 787,Water,1
 Node,533,NODE 788,Water,1
 Node,534,NODE 792,Water,1
 Node,535,NODE 793,Water,1
 Node,536,NODE 794,Water,1
 Node,537,NODE 795,Water,1
 Node,538,NODE 799,Water,1
 Node,539,NODE 800,Water,1
 Node,540,HOT WATER LOOP DEMAND BYPASS PIPE INLET NODE,Water,1
 Node,541,HOT WATER LOOP DEMAND BYPASS PIPE OUTLET NODE,Water,1
 Node,542,HOT WATER LOOP DEMAND OUTLET PIPE NODE,Water,1
 Node,543,NODE 60,Water,2
 Node,544,NODE 801,Water,2
 Node,545,NODE 807,Water,1
 Node,546,NODE 803,Water,1
 Node,547,NODE 808,Water,1
 Node,548,NODE 809,Water,1
 Node,549,NODE 810,Water,1
 Node,550,NODE 812,Water,1
 Node,551,NODE 802,Water,4
 Node,552,NODE 804,Water,2
 Node,553,NODE 813,Water,1
 Node,554,NODE 806,Water,1
 Node,555,NODE 811,Water,1
 Node,556,NODE 815,Water,1
 Node,557,NODE 816,Water,1
 Node,558,NODE 817,Water,1
 Node,559,NODE 818,Water,1
 Node,560,NODE 819,Water,1
 Node,561,NODE 820,Water,1
 Node,562,NODE 821,Water,1
 Node,563,NODE 822,Water,1
 Node,564,NODE 823,Water,1
 Node,565,NODE 824,Water,1
 Node,566,NODE 825,Water,1
 Node,567,NODE 826,Water,1
 Node,568,NODE 827,Water,1
 Node,569,NODE 828,Water,1
 Node,570,NODE 829,Water,1
 Node,571,NODE 830,Water,1
 Node,572,NODE 831,Water,1
 Node,573,NODE 832,Water,1
 Node,574,NODE 833,Water,1
 Node,575,NODE 834,Water,1
 Node,576,NODE 835,Water,1
 Node,577,NODE 836,Water,1
 Node,578,NODE 837,Water,1
 Node,579,NODE 838,Water,1
 Node,580,NODE 839,Water,1
 Node,581,NODE 840,Water,1
 Node,582,NODE 841,Water,1
 Node,583,NODE 842,Water,1
 Node,584,NODE 843,Water,1
 Node,585,NODE 844,Water,1
 Node,586,NODE 845,Water,1
 Node,587,NODE 846,Water,1
 Node,588,NODE 847,Water,1
 Node,589,NODE 848,Water,1
 Node,590,NODE 849,Water,1
 Node,591,NODE 850,Water,1
 Node,592,NODE 851,Water,1
 Node,593,NODE 852,Water,1
 Node,594,NODE 853,Water,1
 Node,595,NODE 854,Water,1
 Node,596,NODE 855,Water,1
 Node,597,NODE 856,Water,1
 Node,598,NODE 857,Water,1
 Node,599,NODE 858,Water,1
 Node,600,NODE 859,Water,1
 Node,601,NODE 860,Water,1
 Node,602,NODE 861,Water,1
 Node,603,NODE 862,Water,1
 Node,604,NODE 863,Water,1
 Node,605,NODE 864,Water,1
 Node,606,NODE 865,Water,1
 Node,607,NODE 866,Water,1
 Node,608,NODE 867,Water,1
 Node,609,NODE 868,Water,1
 Node,610,NODE 869,Water,1
 Node,611,NODE 870,Water,1
 Node,612,NODE 871,Water,1
 Node,613,NODE 872,Water,1
 Node,614,NODE 873,Water,1
 Node,615,NODE 874,Water,1
 Node,616,NODE 875,Water,1
 Node,617,NODE 876,Water,1
 Node,618,NODE 877,Water,1
 Node,619,NODE 878,Water,1
 Node,620,NODE 879,Water,1
 Node,621,NODE 880,Water,1
 Node,622,NODE 881,Water,1
 Node,623,NODE 882,Water,1
 Node,624,NODE 883,Water,1
 Node,625,NODE 884,Water,1
 Node,626,NODE 885,Water,1
 Node,627,NODE 886,Water,1
 Node,628,NODE 887,Water,1
 Node,629,NODE 888,Water,1
 Node,630,NODE 889,Water,1
 Node,631,NODE 890,Water,1
 Node,632,NODE 891,Water,1
 Node,633,NODE 892,Water,1
 Node,634,NODE 893,Water,1
 Node,635,NODE 894,Water,1
 Node,636,NODE 895,Water,1
 Node,637,NODE 896,Water,1
 Node,638,NODE 897,Water,1
 Node,639,NODE 898,Water,1
 Node,640,NODE 899,Water,1
 Node,641,NODE 900,Water,1
 Node,642,NODE 901,Water,1
 Node,643,NODE 902,Water,1
 Node,644,NODE 903,Water,1
 Node,645,NODE 904,Water,1
 Node,646,NODE 905,Water,1
 Node,647,NODE 906,Water,1
 Node,648,NODE 907,Water,1
 Node,649,NODE 908,Water,1
 Node,650,NODE 909,Water,1
 Node,651,NODE 910,Water,1
 Node,652,MAIN SERVICE WATER LOOP DEMAND BYPASS PIPE INLET NODE,Water,1
 Node,653,MAIN SERVICE WATER LOOP DEMAND BYPASS PIPE OUTLET NODE,Water,1
 Node,654,NODE 814,Water,1
 Node,655,NODE 805,Water,2
 Node,656,NODE 1,Air,1
 Node,657,NODE 79,Air,1
 Node,658,NODE 2,Air,1
 Node,659,NODE 91,Air,1
 Node,660,NODE 9,Air,1
 Node,661,NODE 182,Air,1
 Node,662,NODE 46,Air,1
 Node,663,NODE 663,Air,1
 Node,664,NODE 21,Air,1
 Node,665,NODE 338,Air,1
 Node,666,NODE 34,Air,1
 Node,667,NODE 507,Air,1
 Node,668,NODE 22,Air,1
 Node,669,NODE 351,Air,1
 Node,670,NODE 35,Air,1
 Node,671,NODE 520,Air,1
 Node,672,NODE 48,Air,1
 Node,673,NODE 689,Air,1
 Node,674,NODE 7,Air,1
 Node,675,NODE 156,Air,1
 Node,676,NODE 5,Air,1
 Node,677,NODE 130,Air,1
 Node,678,NODE 6,Air,1
 Node,679,NODE 143,Air,1
 Node,680,NODE 8,Air,1
 Node,681,NODE 169,Air,1
 Node,682,NODE 3,Air,1
 Node,683,NODE 104,Air,1
 Node,684,NODE 4,Air,1
 Node,685,NODE 117,Air,1
 Node,686,NODE 16,Air,1
 Node,687,NODE 273,Air,1
 Node,688,NODE 18,Air,1
 Node,689,NODE 299,Air,1
 Node,690,NODE 10,Air,1
 Node,691,NODE 195,Air,1
 Node,692,NODE 11,Air,1
 Node,693,NODE 208,Air,1
 Node,694,NODE 15,Air,1
 Node,695,NODE 260,Air,1
 Node,696,NODE 47,Air,1
 Node,697,NODE 676,Air,1
 Node,698,NODE 20,Air,1
 Node,699,NODE 325,Air,1
 Node,700,NODE 33,Air,1
 Node,701,NODE 494,Air,1
 Node,702,NODE 50,Air,0
 Node,703,NODE 748,Air,1
 Node,704,NODE 31,Air,1
 Node,705,NODE 468,Air,1
 Node,706,NODE 44,Air,1
 Node,707,NODE 637,Air,1
 Node,708,NODE 49,Air,1
 Node,709,NODE 702,Air,1
 Node,710,NODE 55,Air,0
 Node,711,NODE 776,Air,1
 Node,712,NODE 51,Air,0
 Node,713,NODE 755,Air,1
 Node,714,NODE 54,Air,0
 Node,715,NODE 783,Air,1
 Node,716,NODE 52,Air,0
 Node,717,NODE 790,Air,1
 Node,718,NODE 53,Air,0
 Node,719,NODE 797,Air,1
 Node,720,NODE 12,Air,1
 Node,721,NODE 221,Air,1
 Node,722,NODE 14,Air,1
 Node,723,NODE 247,Air,1
 Node,724,NODE 13,Air,1
 Node,725,NODE 234,Air,1
 Node,726,NODE 19,Air,1
 Node,727,NODE 312,Air,1
 Node,728,NODE 17,Air,1
 Node,729,NODE 286,Air,1
 Node,730,NODE 28,Air,1
 Node,731,NODE 429,Air,1
 Node,732,NODE 41,Air,1
 Node,733,NODE 598,Air,1
 Node,734,NODE 29,Air,1
 Node,735,NODE 442,Air,1
 Node,736,NODE 42,Air,1
 Node,737,NODE 611,Air,1
 Node,738,NODE 26,Air,1
 Node,739,NODE 403,Air,1
 Node,740,NODE 39,Air,1
 Node,741,NODE 572,Air,1
 Node,742,NODE 23,Air,1
 Node,743,NODE 364,Air,1
 Node,744,NODE 36,Air,1
 Node,745,NODE 533,Air,1
 Node,746,NODE 24,Air,1
 Node,747,NODE 377,Air,1
 Node,748,NODE 37,Air,1
 Node,749,NODE 546,Air,1
 Node,750,NODE 30,Air,1
 Node,751,NODE 455,Air,1
 Node,752,NODE 43,Air,1
 Node,753,NODE 624,Air,1
 Node,754,NODE 27,Air,1
 Node,755,NODE 416,Air,1
 Node,756,NODE 40,Air,1
 Node,757,NODE 585,Air,1
 Node,758,NODE 25,Air,1
 Node,759,NODE 390,Air,1
 Node,760,NODE 38,Air,1
 Node,761,NODE 559,Air,1
 Node,762,NODE 32,Air,1
 Node,763,NODE 481,Air,1
 Node,764,NODE 45,Air,1
 Node,765,NODE 650,Air,1
 Node,766,NODE 72,Air,2
 Node,767,NODE 84,Air,2
 Node,768,NODE 175,Air,2
 Node,769,NODE 656,Air,2
 Node,770,NODE 331,Air,2
 Node,771,NODE 500,Air,2
 Node,772,NODE 344,Air,2
 Node,773,NODE 513,Air,2
 Node,774,NODE 682,Air,2
 Node,775,NODE 149,Air,2
 Node,776,NODE 123,Air,2
 Node,777,NODE 136,Air,2
 Node,778,NODE 162,Air,2
 Node,779,NODE 97,Air,2
 Node,780,NODE 110,Air,2
 Node,781,NODE 266,Air,2
 Node,782,NODE 292,Air,2
 Node,783,NODE 188,Air,2
 Node,784,NODE 201,Air,2
 Node,785,NODE 253,Air,2
 Node,786,NODE 669,Air,2
 Node,787,NODE 318,Air,2
 Node,788,NODE 487,Air,2
 Node,789,NODE 461,Air,2
 Node,790,NODE 630,Air,2
 Node,791,NODE 695,Air,2
 Node,792,NODE 214,Air,2
 Node,793,NODE 240,Air,2
 Node,794,NODE 227,Air,2
 Node,795,NODE 305,Air,2
 Node,796,NODE 279,Air,2
 Node,797,NODE 422,Air,2
 Node,798,NODE 591,Air,2
 Node,799,NODE 435,Air,2
 Node,800,NODE 604,Air,2
 Node,801,NODE 396,Air,2
 Node,802,NODE 565,Air,2
 Node,803,NODE 357,Air,2
 Node,804,NODE 526,Air,2
 Node,805,NODE 370,Air,2
 Node,806,NODE 539,Air,2
 Node,807,NODE 448,Air,2
 Node,808,NODE 617,Air,2
 Node,809,NODE 409,Air,2
 Node,810,NODE 578,Air,2
 Node,811,NODE 383,Air,2
 Node,812,NODE 552,Air,2
 Node,813,NODE 474,Air,2
 Node,814,NODE 643,Air,2
 Node,815,NODE 735,Air,2
 Node,816,NODE 762,Air,2
 Node,817,NODE 74,Air,2
 Node,818,NODE 86,Air,2
 Node,819,NODE 177,Air,2
 Node,820,NODE 658,Air,2
 Node,821,NODE 333,Air,2
 Node,822,NODE 502,Air,2
 Node,823,NODE 346,Air,2
 Node,824,NODE 515,Air,2
 Node,825,NODE 684,Air,2
 Node,826,NODE 151,Air,2
 Node,827,NODE 125,Air,2
 Node,828,NODE 138,Air,2
 Node,829,NODE 164,Air,2
 Node,830,NODE 99,Air,2
 Node,831,NODE 112,Air,2
 Node,832,NODE 268,Air,2
 Node,833,NODE 294,Air,2
 Node,834,NODE 190,Air,2
 Node,835,NODE 203,Air,2
 Node,836,NODE 255,Air,2
 Node,837,NODE 671,Air,2
 Node,838,NODE 320,Air,2
 Node,839,NODE 489,Air,2
 Node,840,NODE 463,Air,2
 Node,841,NODE 632,Air,2
 Node,842,NODE 697,Air,2
 Node,843,NODE 216,Air,2
 Node,844,NODE 242,Air,2
 Node,845,NODE 229,Air,2
 Node,846,NODE 307,Air,2
 Node,847,NODE 281,Air,2
 Node,848,NODE 424,Air,2
 Node,849,NODE 593,Air,2
 Node,850,NODE 437,Air,2
 Node,851,NODE 606,Air,2
 Node,852,NODE 398,Air,2
 Node,853,NODE 567,Air,2
 Node,854,NODE 359,Air,2
 Node,855,NODE 528,Air,2
 Node,856,NODE 372,Air,2
 Node,857,NODE 541,Air,2
 Node,858,NODE 450,Air,2
 Node,859,NODE 619,Air,2
 Node,860,NODE 411,Air,2
 Node,861,NODE 580,Air,2
 Node,862,NODE 385,Air,2
 Node,863,NODE 554,Air,2
 Node,864,NODE 476,Air,2
 Node,865,NODE 645,Air,2
 Node,866,NODE 740,Air,2
 Node,867,NODE 768,Air,2
 Node,868,MODEL OUTDOOR AIR NODE,Air,0
 Node,869,NODE 749,Air,1
 Node,870,NODE 756,Air,1
 Node,871,NODE 777,Air,1
 Node,872,NODE 784,Air,1
 Node,873,NODE 791,Air,1
 Node,874,NODE 798,Air,1
 Node,875,AIR TERMINAL SINGLE DUCT VAV REHEAT 1 DAMPER OUTLET,Air,1
 Node,876,AIR TERMINAL SINGLE DUCT VAV REHEAT 3 DAMPER OUTLET,Air,1
 Node,877,AIR TERMINAL SINGLE DUCT VAV REHEAT 2 DAMPER OUTLET,Air,1
 Node,878,AIR TERMINAL SINGLE DUCT VAV REHEAT 4 DAMPER OUTLET,Air,1
 Node,879,AIR TERMINAL SINGLE DUCT VAV REHEAT 5 DAMPER OUTLET,Air,1
 Node,880,AIR TERMINAL SINGLE DUCT VAV REHEAT 6 DAMPER OUTLET,Air,1
 Node,881,NODE 75,Air,1
 Node,882,NODE 87,Air,1
 Node,883,NODE 178,Air,1
 Node,884,NODE 659,Air,1
 Node,885,NODE 334,Air,1
 Node,886,NODE 503,Air,1
 Node,887,NODE 347,Air,1
 Node,888,NODE 516,Air,1
 Node,889,NODE 685,Air,1
 Node,890,NODE 152,Air,1
 Node,891,NODE 126,Air,1
 Node,892,NODE 139,Air,1
 Node,893,NODE 165,Air,1
 Node,894,NODE 100,Air,1
 Node,895,NODE 113,Air,1
 Node,896,NODE 269,Air,1
 Node,897,NODE 295,Air,1
 Node,898,NODE 191,Air,1
 Node,899,NODE 204,Air,1
 Node,900,NODE 256,Air,1
 Node,901,NODE 672,Air,1
 Node,902,NODE 321,Air,1
 Node,903,NODE 490,Air,1
 Node,904,NODE 464,Air,1
 Node,905,NODE 633,Air,1
 Node,906,NODE 698,Air,1
 Node,907,NODE 217,Air,1
 Node,908,NODE 243,Air,1
 Node,909,NODE 230,Air,1
 Node,910,NODE 308,Air,1
 Node,911,NODE 282,Air,1
 Node,912,NODE 425,Air,1
 Node,913,NODE 594,Air,1
 Node,914,NODE 438,Air,1
 Node,915,NODE 607,Air,1
 Node,916,NODE 399,Air,1
 Node,917,NODE 568,Air,1
 Node,918,NODE 360,Air,1
 Node,919,NODE 529,Air,1
 Node,920,NODE 373,Air,1
 Node,921,NODE 542,Air,1
 Node,922,NODE 451,Air,1
 Node,923,NODE 620,Air,1
 Node,924,NODE 412,Air,1
 Node,925,NODE 581,Air,1
 Node,926,NODE 386,Air,1
 Node,927,NODE 555,Air,1
 Node,928,NODE 477,Air,1
 Node,929,NODE 646,Air,1
 Node,930,NODE 741,Air,1
 Node,931,NODE 769,Air,1
! ===============================================================
! Suspicious nodes have 0 references.  It is normal for some nodes, however.
! Listing nodes with 0 references (culled from previous list):
! <Suspicious Node>,<NodeNumber>,<Node Name>,<Node Fluid Type>,<# Times Node Referenced After Definition>
 Suspicious Node,702,NODE 50,Air,0
 Suspicious Node,710,NODE 55,Air,0
 Suspicious Node,712,NODE 51,Air,0
 Suspicious Node,714,NODE 54,Air,0
 Suspicious Node,716,NODE 52,Air,0
 Suspicious Node,718,NODE 53,Air,0
 Suspicious Node,868,MODEL OUTDOOR AIR NODE,Air,0
! ===============================================================
! <#Branch Lists>,<Number of Branch Lists>
 #Branch Lists,59
! <Branch List>,<Branch List Count>,<Branch List Name>,<Loop Name>,<Loop Type>,<Number of Branches>
! <Branch>,<Branch Count>,<Branch Name>,<Loop Name>,<Loop Type>,<Branch Inlet Node Name>,<Branch Outlet Node Name>
 Branch List,1,SP-BASEMENT SYS-3 FLR-1 SCH-A HPLCMT-NORTH ZN NECB SYSTEM 3 PSZ SUPPLY BRANCHES,SP-BASEMENT SYS-3 FLR-1 SCH-A HPLCMT-NORTH ZN NECB SYSTEM 3 PSZ,Air,1
   Branch,1,SP-BASEMENT SYS-3 FLR-1 SCH-A HPLCMT-NORTH ZN NECB SYSTEM 3 PSZ MAIN BRANCH,SP-BASEMENT SYS-3 FLR-1 SCH-A HPLCMT-NORTH ZN NECB SYSTEM 3 PSZ,Air,NODE 69,NODE 70
 Branch List,2,SP-CORRIDOR_FLR_1 SYS-3 FLR-2 SCH-B HPLCMT-NORTH ZN NECB SYSTEM 3 PSZ SUPPLY BRANCHES,SP-CORRIDOR_FLR_1 SYS-3 FLR-2 SCH-B HPLCMT-NORTH ZN NECB SYSTEM 3 PSZ,Air,1
   Branch,1,SP-CORRIDOR_FLR_1 SYS-3 FLR-2 SCH-B HPLCMT-NORTH ZN NECB SYSTEM 3 PSZ MAIN BRANCH,SP-CORRIDOR_FLR_1 SYS-3 FLR-2 SCH-B HPLCMT-NORTH ZN NECB SYSTEM 3 PSZ,Air,NODE 81,NODE 82
 Branch List,3,SP-CORRIDOR_FLR_2 SYS-3 FLR-3 SCH-B HPLCMT-NORTH ZN NECB SYSTEM 3 PSZ SUPPLY BRANCHES,SP-CORRIDOR_FLR_2 SYS-3 FLR-3 SCH-B HPLCMT-NORTH ZN NECB SYSTEM 3 PSZ,Air,1
   Branch,1,SP-CORRIDOR_FLR_2 SYS-3 FLR-3 SCH-B HPLCMT-NORTH ZN NECB SYSTEM 3 PSZ MAIN BRANCH,SP-CORRIDOR_FLR_2 SYS-3 FLR-3 SCH-B HPLCMT-NORTH ZN NECB SYSTEM 3 PSZ,Air,NODE 172,NODE 173
 Branch List,4,SP-CORRIDOR_FLR_5 SYS-3 FLR-7 SCH-B HPLCMT-NORTH ZN NECB SYSTEM 3 PSZ SUPPLY BRANCHES,SP-CORRIDOR_FLR_5 SYS-3 FLR-7 SCH-B HPLCMT-NORTH ZN NECB SYSTEM 3 PSZ,Air,1
   Branch,1,SP-CORRIDOR_FLR_5 SYS-3 FLR-7 SCH-B HPLCMT-NORTH ZN NECB SYSTEM 3 PSZ MAIN BRANCH,SP-CORRIDOR_FLR_5 SYS-3 FLR-7 SCH-B HPLCMT-NORTH ZN NECB SYSTEM 3 PSZ,Air,NODE 653,NODE 654
 Branch List,5,SP-CORRIDOR_NW_FLR_3 SYS-3 FLR-4 SCH-B HPLCMT-NORTH ZN NECB SYSTEM 3 PSZ SUPPLY BRANCHES,SP-CORRIDOR_NW_FLR_3 SYS-3 FLR-4 SCH-B HPLCMT-NORTH ZN NECB SYSTEM 3 PSZ,Air,1
   Branch,1,SP-CORRIDOR_NW_FLR_3 SYS-3 FLR-4 SCH-B HPLCMT-NORTH ZN NECB SYSTEM 3 PSZ MAIN BRANCH,SP-CORRIDOR_NW_FLR_3 SYS-3 FLR-4 SCH-B HPLCMT-NORTH ZN NECB SYSTEM 3 PSZ,Air,NODE 328,NODE 329
 Branch List,6,SP-CORRIDOR_NW_FLR_4 SYS-3 FLR-5 SCH-B HPLCMT-NORTH ZN NECB SYSTEM 3 PSZ SUPPLY BRANCHES,SP-CORRIDOR_NW_FLR_4 SYS-3 FLR-5 SCH-B HPLCMT-NORTH ZN NECB SYSTEM 3 PSZ,Air,1
   Branch,1,SP-CORRIDOR_NW_FLR_4 SYS-3 FLR-5 SCH-B HPLCMT-NORTH ZN NECB SYSTEM 3 PSZ MAIN BRANCH,SP-CORRIDOR_NW_FLR_4 SYS-3 FLR-5 SCH-B HPLCMT-NORTH ZN NECB SYSTEM 3 PSZ,Air,NODE 497,NODE 498
 Branch List,7,SP-CORRIDOR_SE_FLR_3 SYS-3 FLR-4 SCH-B HPLCMT-SOUTH ZN NECB SYSTEM 3 PSZ SUPPLY BRANCHES,SP-CORRIDOR_SE_FLR_3 SYS-3 FLR-4 SCH-B HPLCMT-SOUTH ZN NECB SYSTEM 3 PSZ,Air,1
   Branch,1,SP-CORRIDOR_SE_FLR_3 SYS-3 FLR-4 SCH-B HPLCMT-SOUTH ZN NECB SYSTEM 3 PSZ MAIN BRANCH,SP-CORRIDOR_SE_FLR_3 SYS-3 FLR-4 SCH-B HPLCMT-SOUTH ZN NECB SYSTEM 3 PSZ,Air,NODE 341,NODE 342
 Branch List,8,SP-CORRIDOR_SE_FLR_4 SYS-3 FLR-5 SCH-B HPLCMT-SOUTH ZN NECB SYSTEM 3 PSZ SUPPLY BRANCHES,SP-CORRIDOR_SE_FLR_4 SYS-3 FLR-5 SCH-B HPLCMT-SOUTH ZN NECB SYSTEM 3 PSZ,Air,1
   Branch,1,SP-CORRIDOR_SE_FLR_4 SYS-3 FLR-5 SCH-B HPLCMT-SOUTH ZN NECB SYSTEM 3 PSZ MAIN BRANCH,SP-CORRIDOR_SE_FLR_4 SYS-3 FLR-5 SCH-B HPLCMT-SOUTH ZN NECB SYSTEM 3 PSZ,Air,NODE 510,NODE 511
 Branch List,9,SP-DINING_FLR_5 SYS-3 FLR-7 SCH-B HPLCMT-SOUTH ZN NECB SYSTEM 3 PSZ SUPPLY BRANCHES,SP-DINING_FLR_5 SYS-3 FLR-7 SCH-B HPLCMT-SOUTH ZN NECB SYSTEM 3 PSZ,Air,1
   Branch,1,SP-DINING_FLR_5 SYS-3 FLR-7 SCH-B HPLCMT-SOUTH ZN NECB SYSTEM 3 PSZ MAIN BRANCH,SP-DINING_FLR_5 SYS-3 FLR-7 SCH-B HPLCMT-SOUTH ZN NECB SYSTEM 3 PSZ,Air,NODE 679,NODE 680
 Branch List,10,SP-ER_EXAM1_MULT4_FLR_1 SYS-3 FLR-2 SCH-H HPLCMT-SOUTH ZN NECB SYSTEM 3 PSZ SUPPLY BRANCHES,SP-ER_EXAM1_MULT4_FLR_1 SYS-3 FLR-2 SCH-H HPLCMT-SOUTH ZN NECB SYSTEM 3 PSZ,Air,1
   Branch,1,SP-ER_EXAM1_MULT4_FLR_1 SYS-3 FLR-2 SCH-H HPLCMT-SOUTH ZN NECB SYSTEM 3 PSZ MAIN BRANCH,SP-ER_EXAM1_MULT4_FLR_1 SYS-3 FLR-2 SCH-H HPLCMT-SOUTH ZN NECB SYSTEM 3 PSZ,Air,NODE 146,NODE 147
 Branch List,11,SP-ER_EXAM3_MULT4_FLR_1 SYS-3 FLR-2 SCH-H HPLCMT-EAST ZN NECB SYSTEM 3 PSZ SUPPLY BRANCHES,SP-ER_EXAM3_MULT4_FLR_1 SYS-3 FLR-2 SCH-H HPLCMT-EAST ZN NECB SYSTEM 3 PSZ,Air,1
   Branch,1,SP-ER_EXAM3_MULT4_FLR_1 SYS-3 FLR-2 SCH-H HPLCMT-EAST ZN NECB SYSTEM 3 PSZ MAIN BRANCH,SP-ER_EXAM3_MULT4_FLR_1 SYS-3 FLR-2 SCH-H HPLCMT-EAST ZN NECB SYSTEM 3 PSZ,Air,NODE 120,NODE 121
 Branch List,12,SP-ER_NURSESTN_LOBBY_FLR_1 SYS-3 FLR-2 SCH-H HPLCMT-EAST ZN NECB SYSTEM 3 PSZ SUPPLY BRANCHES,SP-ER_NURSESTN_LOBBY_FLR_1 SYS-3 FLR-2 SCH-H HPLCMT-EAST ZN NECB SYSTEM 3 PSZ,Air,1
   Branch,1,SP-ER_NURSESTN_LOBBY_FLR_1 SYS-3 FLR-2 SCH-H HPLCMT-EAST ZN NECB SYSTEM 3 PSZ MAIN BRANCH,SP-ER_NURSESTN_LOBBY_FLR_1 SYS-3 FLR-2 SCH-H HPLCMT-EAST ZN NECB SYSTEM 3 PSZ,Air,NODE 133,NODE 134
 Branch List,13,SP-ER_TRAUMA1_FLR_1 SYS-3 FLR-2 SCH-H HPLCMT-SOUTH ZN NECB SYSTEM 3 PSZ SUPPLY BRANCHES,SP-ER_TRAUMA1_FLR_1 SYS-3 FLR-2 SCH-H HPLCMT-SOUTH ZN NECB SYSTEM 3 PSZ,Air,1
   Branch,1,SP-ER_TRAUMA1_FLR_1 SYS-3 FLR-2 SCH-H HPLCMT-SOUTH ZN NECB SYSTEM 3 PSZ MAIN BRANCH,SP-ER_TRAUMA1_FLR_1 SYS-3 FLR-2 SCH-H HPLCMT-SOUTH ZN NECB SYSTEM 3 PSZ,Air,NODE 159,NODE 160
 Branch List,14,SP-ER_TRAUMA2_FLR_1 SYS-3 FLR-2 SCH-H HPLCMT-NORTH ZN NECB SYSTEM 3 PSZ SUPPLY BRANCHES,SP-ER_TRAUMA2_FLR_1 SYS-3 FLR-2 SCH-H HPLCMT-NORTH ZN NECB SYSTEM 3 PSZ,Air,1
   Branch,1,SP-ER_TRAUMA2_FLR_1 SYS-3 FLR-2 SCH-H HPLCMT-NORTH ZN NECB SYSTEM 3 PSZ MAIN BRANCH,SP-ER_TRAUMA2_FLR_1 SYS-3 FLR-2 SCH-H HPLCMT-NORTH ZN NECB SYSTEM 3 PSZ,Air,NODE 94,NODE 95
 Branch List,15,SP-ER_TRIAGE_MULT4_FLR_1 SYS-3 FLR-2 SCH-H HPLCMT-NORTH ZN NECB SYSTEM 3 PSZ SUPPLY BRANCHES,SP-ER_TRIAGE_MULT4_FLR_1 SYS-3 FLR-2 SCH-H HPLCMT-NORTH ZN NECB SYSTEM 3 PSZ,Air,1
   Branch,1,SP-ER_TRIAGE_MULT4_FLR_1 SYS-3 FLR-2 SCH-H HPLCMT-NORTH ZN NECB SYSTEM 3 PSZ MAIN BRANCH,SP-ER_TRIAGE_MULT4_FLR_1 SYS-3 FLR-2 SCH-H HPLCMT-NORTH ZN NECB SYSTEM 3 PSZ,Air,NODE 107,NODE 108
 Branch List,16,SP-ICU_FLR_2 SYS-3 FLR-3 SCH-H HPLCMT-SOUTH ZN NECB SYSTEM 3 PSZ SUPPLY BRANCHES,SP-ICU_FLR_2 SYS-3 FLR-3 SCH-H HPLCMT-SOUTH ZN NECB SYSTEM 3 PSZ,Air,1
   Branch,1,SP-ICU_FLR_2 SYS-3 FLR-3 SCH-H HPLCMT-SOUTH ZN NECB SYSTEM 3 PSZ MAIN BRANCH,SP-ICU_FLR_2 SYS-3 FLR-3 SCH-H HPLCMT-SOUTH ZN NECB SYSTEM 3 PSZ,Air,NODE 263,NODE 264
 Branch List,17,SP-ICU_NURSESTN_LOBBY_FLR_2 SYS-3 FLR-3 SCH-H HPLCMT-CORE ZN NECB SYSTEM 3 PSZ SUPPLY BRANCHES,SP-ICU_NURSESTN_LOBBY_FLR_2 SYS-3 FLR-3 SCH-H HPLCMT-CORE ZN NECB SYSTEM 3 PSZ,Air,1
   Branch,1,SP-ICU_NURSESTN_LOBBY_FLR_2 SYS-3 FLR-3 SCH-H HPLCMT-CORE ZN NECB SYSTEM 3 PSZ MAIN BRANCH,SP-ICU_NURSESTN_LOBBY_FLR_2 SYS-3 FLR-3 SCH-H HPLCMT-CORE ZN NECB SYSTEM 3 PSZ,Air,NODE 289,NODE 290
 Branch List,18,SP-IC_PATROOM1_MULT5_FLR_2 SYS-3 FLR-3 SCH-H HPLCMT-NORTH ZN NECB SYSTEM 3 PSZ SUPPLY BRANCHES,SP-IC_PATROOM1_MULT5_FLR_2 SYS-3 FLR-3 SCH-H HPLCMT-NORTH ZN NECB SYSTEM 3 PSZ,Air,1
   Branch,1,SP-IC_PATROOM1_MULT5_FLR_2 SYS-3 FLR-3 SCH-H HPLCMT-NORTH ZN NECB SYSTEM 3 PSZ MAIN BRANCH,SP-IC_PATROOM1_MULT5_FLR_2 SYS-3 FLR-3 SCH-H HPLCMT-NORTH ZN NECB SYSTEM 3 PSZ,Air,NODE 185,NODE 186
 Branch List,19,SP-IC_PATROOM2_FLR_2 SYS-3 FLR-3 SCH-H HPLCMT-NORTH ZN NECB SYSTEM 3 PSZ SUPPLY BRANCHES,SP-IC_PATROOM2_FLR_2 SYS-3 FLR-3 SCH-H HPLCMT-NORTH ZN NECB SYSTEM 3 PSZ,Air,1
   Branch,1,SP-IC_PATROOM2_FLR_2 SYS-3 FLR-3 SCH-H HPLCMT-NORTH ZN NECB SYSTEM 3 PSZ MAIN BRANCH,SP-IC_PATROOM2_FLR_2 SYS-3 FLR-3 SCH-H HPLCMT-NORTH ZN NECB SYSTEM 3 PSZ,Air,NODE 198,NODE 199
 Branch List,20,SP-IC_PATROOM3_MULT6_FLR_2 SYS-3 FLR-3 SCH-H HPLCMT-WEST ZN NECB SYSTEM 3 PSZ SUPPLY BRANCHES,SP-IC_PATROOM3_MULT6_FLR_2 SYS-3 FLR-3 SCH-H HPLCMT-WEST ZN NECB SYSTEM 3 PSZ,Air,1
   Branch,1,SP-IC_PATROOM3_MULT6_FLR_2 SYS-3 FLR-3 SCH-H HPLCMT-WEST ZN NECB SYSTEM 3 PSZ MAIN BRANCH,SP-IC_PATROOM3_MULT6_FLR_2 SYS-3 FLR-3 SCH-H HPLCMT-WEST ZN NECB SYSTEM 3 PSZ,Air,NODE 250,NODE 251
 Branch List,21,SP-KITCHEN_FLR_5 SYS-3 FLR-7 SCH-B HPLCMT-NORTH ZN NECB SYSTEM 3 PSZ SUPPLY BRANCHES,SP-KITCHEN_FLR_5 SYS-3 FLR-7 SCH-B HPLCMT-NORTH ZN NECB SYSTEM 3 PSZ,Air,1
   Branch,1,SP-KITCHEN_FLR_5 SYS-3 FLR-7 SCH-B HPLCMT-NORTH ZN NECB SYSTEM 3 PSZ MAIN BRANCH,SP-KITCHEN_FLR_5 SYS-3 FLR-7 SCH-B HPLCMT-NORTH ZN NECB SYSTEM 3 PSZ,Air,NODE 666,NODE 667
 Branch List,22,SP-LAB_FLR_3 SYS-3 FLR-4 SCH-A HPLCMT-CORE ZN NECB SYSTEM 3 PSZ SUPPLY BRANCHES,SP-LAB_FLR_3 SYS-3 FLR-4 SCH-A HPLCMT-CORE ZN NECB SYSTEM 3 PSZ,Air,1
   Branch,1,SP-LAB_FLR_3 SYS-3 FLR-4 SCH-A HPLCMT-CORE ZN NECB SYSTEM 3 PSZ MAIN BRANCH,SP-LAB_FLR_3 SYS-3 FLR-4 SCH-A HPLCMT-CORE ZN NECB SYSTEM 3 PSZ,Air,NODE 315,NODE 316
 Branch List,23,SP-LAB_FLR_4 SYS-3 FLR-5 SCH-A HPLCMT-CORE ZN NECB SYSTEM 3 PSZ SUPPLY BRANCHES,SP-LAB_FLR_4 SYS-3 FLR-5 SCH-A HPLCMT-CORE ZN NECB SYSTEM 3 PSZ,Air,1
   Branch,1,SP-LAB_FLR_4 SYS-3 FLR-5 SCH-A HPLCMT-CORE ZN NECB SYSTEM 3 PSZ MAIN BRANCH,SP-LAB_FLR_4 SYS-3 FLR-5 SCH-A HPLCMT-CORE ZN NECB SYSTEM 3 PSZ,Air,NODE 484,NODE 485
 Branch List,24,SP-NURSESTN_LOBBY_FLR_3 SYS-3 FLR-4 SCH-H HPLCMT-CORE ZN NECB SYSTEM 3 PSZ SUPPLY BRANCHES,SP-NURSESTN_LOBBY_FLR_3 SYS-3 FLR-4 SCH-H HPLCMT-CORE ZN NECB SYSTEM 3 PSZ,Air,1
   Branch,1,SP-NURSESTN_LOBBY_FLR_3 SYS-3 FLR-4 SCH-H HPLCMT-CORE ZN NECB SYSTEM 3 PSZ MAIN BRANCH,SP-NURSESTN_LOBBY_FLR_3 SYS-3 FLR-4 SCH-H HPLCMT-CORE ZN NECB SYSTEM 3 PSZ,Air,NODE 458,NODE 459
 Branch List,25,SP-NURSESTN_LOBBY_FLR_4 SYS-3 FLR-5 SCH-H HPLCMT-CORE ZN NECB SYSTEM 3 PSZ SUPPLY BRANCHES,SP-NURSESTN_LOBBY_FLR_4 SYS-3 FLR-5 SCH-H HPLCMT-CORE ZN NECB SYSTEM 3 PSZ,Air,1
   Branch,1,SP-NURSESTN_LOBBY_FLR_4 SYS-3 FLR-5 SCH-H HPLCMT-CORE ZN NECB SYSTEM 3 PSZ MAIN BRANCH,SP-NURSESTN_LOBBY_FLR_4 SYS-3 FLR-5 SCH-H HPLCMT-CORE ZN NECB SYSTEM 3 PSZ,Air,NODE 627,NODE 628
 Branch List,26,SP-NURSESTN_LOBBY_FLR_5 SYS-3 FLR-7 SCH-H HPLCMT-SOUTH ZN NECB SYSTEM 3 PSZ SUPPLY BRANCHES,SP-NURSESTN_LOBBY_FLR_5 SYS-3 FLR-7 SCH-H HPLCMT-SOUTH ZN NECB SYSTEM 3 PSZ,Air,1
   Branch,1,SP-NURSESTN_LOBBY_FLR_5 SYS-3 FLR-7 SCH-H HPLCMT-SOUTH ZN NECB SYSTEM 3 PSZ MAIN BRANCH,SP-NURSESTN_LOBBY_FLR_5 SYS-3 FLR-7 SCH-H HPLCMT-SOUTH ZN NECB SYSTEM 3 PSZ,Air,NODE 692,NODE 693
 Branch List,27,SP-OR1_FLR_2 SYS-3 FLR-3 SCH-H HPLCMT-NORTH ZN NECB SYSTEM 3 PSZ SUPPLY BRANCHES,SP-OR1_FLR_2 SYS-3 FLR-3 SCH-H HPLCMT-NORTH ZN NECB SYSTEM 3 PSZ,Air,1
   Branch,1,SP-OR1_FLR_2 SYS-3 FLR-3 SCH-H HPLCMT-NORTH ZN NECB SYSTEM 3 PSZ MAIN BRANCH,SP-OR1_FLR_2 SYS-3 FLR-3 SCH-H HPLCMT-NORTH ZN NECB SYSTEM 3 PSZ,Air,NODE 211,NODE 212
 Branch List,28,SP-OR2_MULT5_FLR_2 SYS-3 FLR-3 SCH-H HPLCMT-EAST ZN NECB SYSTEM 3 PSZ SUPPLY BRANCHES,SP-OR2_MULT5_FLR_2 SYS-3 FLR-3 SCH-H HPLCMT-EAST ZN NECB SYSTEM 3 PSZ,Air,1
   Branch,1,SP-OR2_MULT5_FLR_2 SYS-3 FLR-3 SCH-H HPLCMT-EAST ZN NECB SYSTEM 3 PSZ MAIN BRANCH,SP-OR2_MULT5_FLR_2 SYS-3 FLR-3 SCH-H HPLCMT-EAST ZN NECB SYSTEM 3 PSZ,Air,NODE 237,NODE 238
 Branch List,29,SP-OR3_FLR_2 SYS-3 FLR-3 SCH-H HPLCMT-NORTH ZN NECB SYSTEM 3 PSZ SUPPLY BRANCHES,SP-OR3_FLR_2 SYS-3 FLR-3 SCH-H HPLCMT-NORTH ZN NECB SYSTEM 3 PSZ,Air,1
   Branch,1,SP-OR3_FLR_2 SYS-3 FLR-3 SCH-H HPLCMT-NORTH ZN NECB SYSTEM 3 PSZ MAIN BRANCH,SP-OR3_FLR_2 SYS-3 FLR-3 SCH-H HPLCMT-NORTH ZN NECB SYSTEM 3 PSZ,Air,NODE 224,NODE 225
 Branch List,30,SP-OR4_FLR_2 SYS-3 FLR-3 SCH-H HPLCMT-CORE ZN NECB SYSTEM 3 PSZ SUPPLY BRANCHES,SP-OR4_FLR_2 SYS-3 FLR-3 SCH-H HPLCMT-CORE ZN NECB SYSTEM 3 PSZ,Air,1
   Branch,1,SP-OR4_FLR_2 SYS-3 FLR-3 SCH-H HPLCMT-CORE ZN NECB SYSTEM 3 PSZ MAIN BRANCH,SP-OR4_FLR_2 SYS-3 FLR-3 SCH-H HPLCMT-CORE ZN NECB SYSTEM 3 PSZ,Air,NODE 302,NODE 303
 Branch List,31,SP-OR_NURSESTN_LOBBY_FLR_2 SYS-3 FLR-3 SCH-H HPLCMT-SOUTH ZN NECB SYSTEM 3 PSZ SUPPLY BRANCHES,SP-OR_NURSESTN_LOBBY_FLR_2 SYS-3 FLR-3 SCH-H HPLCMT-SOUTH ZN NECB SYSTEM 3 PSZ,Air,1
   Branch,1,SP-OR_NURSESTN_LOBBY_FLR_2 SYS-3 FLR-3 SCH-H HPLCMT-SOUTH ZN NECB SYSTEM 3 PSZ MAIN BRANCH,SP-OR_NURSESTN_LOBBY_FLR_2 SYS-3 FLR-3 SCH-H HPLCMT-SOUTH ZN NECB SYSTEM 3 PSZ,Air,NODE 276,NODE 277
 Branch List,32,SP-PATROOM1_MULT10_FLR_3 SYS-3 FLR-4 SCH-H HPLCMT-SOUTH ZN NECB SYSTEM 3 PSZ SUPPLY BRANCHES,SP-PATROOM1_MULT10_FLR_3 SYS-3 FLR-4 SCH-H HPLCMT-SOUTH ZN NECB SYSTEM 3 PSZ,Air,1
   Branch,1,SP-PATROOM1_MULT10_FLR_3 SYS-3 FLR-4 SCH-H HPLCMT-SOUTH ZN NECB SYSTEM 3 PSZ MAIN BRANCH,SP-PATROOM1_MULT10_FLR_3 SYS-3 FLR-4 SCH-H HPLCMT-SOUTH ZN NECB SYSTEM 3 PSZ,Air,NODE 419,NODE 420
 Branch List,33,SP-PATROOM1_MULT10_FLR_4 SYS-3 FLR-5 SCH-H HPLCMT-SOUTH ZN NECB SYSTEM 3 PSZ SUPPLY BRANCHES,SP-PATROOM1_MULT10_FLR_4 SYS-3 FLR-5 SCH-H HPLCMT-SOUTH ZN NECB SYSTEM 3 PSZ,Air,1
   Branch,1,SP-PATROOM1_MULT10_FLR_4 SYS-3 FLR-5 SCH-H HPLCMT-SOUTH ZN NECB SYSTEM 3 PSZ MAIN BRANCH,SP-PATROOM1_MULT10_FLR_4 SYS-3 FLR-5 SCH-H HPLCMT-SOUTH ZN NECB SYSTEM 3 PSZ,Air,NODE 588,NODE 589
 Branch List,34,SP-PATROOM2_FLR_3 SYS-3 FLR-4 SCH-H HPLCMT-SOUTH ZN NECB SYSTEM 3 PSZ SUPPLY BRANCHES,SP-PATROOM2_FLR_3 SYS-3 FLR-4 SCH-H HPLCMT-SOUTH ZN NECB SYSTEM 3 PSZ,Air,1
   Branch,1,SP-PATROOM2_FLR_3 SYS-3 FLR-4 SCH-H HPLCMT-SOUTH ZN NECB SYSTEM 3 PSZ MAIN BRANCH,SP-PATROOM2_FLR_3 SYS-3 FLR-4 SCH-H HPLCMT-SOUTH ZN NECB SYSTEM 3 PSZ,Air,NODE 432,NODE 433
 Branch List,35,SP-PATROOM2_FLR_4 SYS-3 FLR-5 SCH-H HPLCMT-SOUTH ZN NECB SYSTEM 3 PSZ SUPPLY BRANCHES,SP-PATROOM2_FLR_4 SYS-3 FLR-5 SCH-H HPLCMT-SOUTH ZN NECB SYSTEM 3 PSZ,Air,1
   Branch,1,SP-PATROOM2_FLR_4 SYS-3 FLR-5 SCH-H HPLCMT-SOUTH ZN NECB SYSTEM 3 PSZ MAIN BRANCH,SP-PATROOM2_FLR_4 SYS-3 FLR-5 SCH-H HPLCMT-SOUTH ZN NECB SYSTEM 3 PSZ,Air,NODE 601,NODE 602
 Branch List,36,SP-PATROOM3_MULT10_FLR_3 SYS-3 FLR-4 SCH-H HPLCMT-EAST ZN NECB SYSTEM 3 PSZ SUPPLY BRANCHES,SP-PATROOM3_MULT10_FLR_3 SYS-3 FLR-4 SCH-H HPLCMT-EAST ZN NECB SYSTEM 3 PSZ,Air,1
   Branch,1,SP-PATROOM3_MULT10_FLR_3 SYS-3 FLR-4 SCH-H HPLCMT-EAST ZN NECB SYSTEM 3 PSZ MAIN BRANCH,SP-PATROOM3_MULT10_FLR_3 SYS-3 FLR-4 SCH-H HPLCMT-EAST ZN NECB SYSTEM 3 PSZ,Air,NODE 393,NODE 394
 Branch List,37,SP-PATROOM3_MULT10_FLR_4 SYS-3 FLR-5 SCH-H HPLCMT-EAST ZN NECB SYSTEM 3 PSZ SUPPLY BRANCHES,SP-PATROOM3_MULT10_FLR_4 SYS-3 FLR-5 SCH-H HPLCMT-EAST ZN NECB SYSTEM 3 PSZ,Air,1
   Branch,1,SP-PATROOM3_MULT10_FLR_4 SYS-3 FLR-5 SCH-H HPLCMT-EAST ZN NECB SYSTEM 3 PSZ MAIN BRANCH,SP-PATROOM3_MULT10_FLR_4 SYS-3 FLR-5 SCH-H HPLCMT-EAST ZN NECB SYSTEM 3 PSZ,Air,NODE 562,NODE 563
 Branch List,38,SP-PATROOM4_FLR_3 SYS-3 FLR-4 SCH-H HPLCMT-NORTH ZN NECB SYSTEM 3 PSZ SUPPLY BRANCHES,SP-PATROOM4_FLR_3 SYS-3 FLR-4 SCH-H HPLCMT-NORTH ZN NECB SYSTEM 3 PSZ,Air,1
   Branch,1,SP-PATROOM4_FLR_3 SYS-3 FLR-4 SCH-H HPLCMT-NORTH ZN NECB SYSTEM 3 PSZ MAIN BRANCH,SP-PATROOM4_FLR_3 SYS-3 FLR-4 SCH-H HPLCMT-NORTH ZN NECB SYSTEM 3 PSZ,Air,NODE 354,NODE 355
 Branch List,39,SP-PATROOM4_FLR_4 SYS-3 FLR-5 SCH-H HPLCMT-NORTH ZN NECB SYSTEM 3 PSZ SUPPLY BRANCHES,SP-PATROOM4_FLR_4 SYS-3 FLR-5 SCH-H HPLCMT-NORTH ZN NECB SYSTEM 3 PSZ,Air,1
   Branch,1,SP-PATROOM4_FLR_4 SYS-3 FLR-5 SCH-H HPLCMT-NORTH ZN NECB SYSTEM 3 PSZ MAIN BRANCH,SP-PATROOM4_FLR_4 SYS-3 FLR-5 SCH-H HPLCMT-NORTH ZN NECB SYSTEM 3 PSZ,Air,NODE 523,NODE 524
 Branch List,40,SP-PATROOM5_MULT10_FLR_3 SYS-3 FLR-4 SCH-H HPLCMT-NORTH ZN NECB SYSTEM 3 PSZ SUPPLY BRANCHES,SP-PATROOM5_MULT10_FLR_3 SYS-3 FLR-4 SCH-H HPLCMT-NORTH ZN NECB SYSTEM 3 PSZ,Air,1
   Branch,1,SP-PATROOM5_MULT10_FLR_3 SYS-3 FLR-4 SCH-H HPLCMT-NORTH ZN NECB SYSTEM 3 PSZ MAIN BRANCH,SP-PATROOM5_MULT10_FLR_3 SYS-3 FLR-4 SCH-H HPLCMT-NORTH ZN NECB SYSTEM 3 PSZ,Air,NODE 367,NODE 368
 Branch List,41,SP-PATROOM5_MULT10_FLR_4 SYS-3 FLR-5 SCH-H HPLCMT-NORTH ZN NECB SYSTEM 3 PSZ SUPPLY BRANCHES,SP-PATROOM5_MULT10_FLR_4 SYS-3 FLR-5 SCH-H HPLCMT-NORTH ZN NECB SYSTEM 3 PSZ,Air,1
   Branch,1,SP-PATROOM5_MULT10_FLR_4 SYS-3 FLR-5 SCH-H HPLCMT-NORTH ZN NECB SYSTEM 3 PSZ MAIN BRANCH,SP-PATROOM5_MULT10_FLR_4 SYS-3 FLR-5 SCH-H HPLCMT-NORTH ZN NECB SYSTEM 3 PSZ,Air,NODE 536,NODE 537
 Branch List,42,SP-PATROOM6_FLR_3 SYS-3 FLR-4 SCH-H HPLCMT-SOUTH ZN NECB SYSTEM 3 PSZ SUPPLY BRANCHES,SP-PATROOM6_FLR_3 SYS-3 FLR-4 SCH-H HPLCMT-SOUTH ZN NECB SYSTEM 3 PSZ,Air,1
   Branch,1,SP-PATROOM6_FLR_3 SYS-3 FLR-4 SCH-H HPLCMT-SOUTH ZN NECB SYSTEM 3 PSZ MAIN BRANCH,SP-PATROOM6_FLR_3 SYS-3 FLR-4 SCH-H HPLCMT-SOUTH ZN NECB SYSTEM 3 PSZ,Air,NODE 445,NODE 446
 Branch List,43,SP-PATROOM6_FLR_4 SYS-3 FLR-5 SCH-H HPLCMT-SOUTH ZN NECB SYSTEM 3 PSZ SUPPLY BRANCHES,SP-PATROOM6_FLR_4 SYS-3 FLR-5 SCH-H HPLCMT-SOUTH ZN NECB SYSTEM 3 PSZ,Air,1
   Branch,1,SP-PATROOM6_FLR_4 SYS-3 FLR-5 SCH-H HPLCMT-SOUTH ZN NECB SYSTEM 3 PSZ MAIN BRANCH,SP-PATROOM6_FLR_4 SYS-3 FLR-5 SCH-H HPLCMT-SOUTH ZN NECB SYSTEM 3 PSZ,Air,NODE 614,NODE 615
 Branch List,44,SP-PATROOM7_MULT10_FLR_3 SYS-3 FLR-4 SCH-H HPLCMT-WEST ZN NECB SYSTEM 3 PSZ SUPPLY BRANCHES,SP-PATROOM7_MULT10_FLR_3 SYS-3 FLR-4 SCH-H HPLCMT-WEST ZN NECB SYSTEM 3 PSZ,Air,1
   Branch,1,SP-PATROOM7_MULT10_FLR_3 SYS-3 FLR-4 SCH-H HPLCMT-WEST ZN NECB SYSTEM 3 PSZ MAIN BRANCH,SP-PATROOM7_MULT10_FLR_3 SYS-3 FLR-4 SCH-H HPLCMT-WEST ZN NECB SYSTEM 3 PSZ,Air,NODE 406,NODE 407
 Branch List,45,SP-PATROOM7_MULT10_FLR_4 SYS-3 FLR-5 SCH-H HPLCMT-WEST ZN NECB SYSTEM 3 PSZ SUPPLY BRANCHES,SP-PATROOM7_MULT10_FLR_4 SYS-3 FLR-5 SCH-H HPLCMT-WEST ZN NECB SYSTEM 3 PSZ,Air,1
   Branch,1,SP-PATROOM7_MULT10_FLR_4 SYS-3 FLR-5 SCH-H HPLCMT-WEST ZN NECB SYSTEM 3 PSZ MAIN BRANCH,SP-PATROOM7_MULT10_FLR_4 SYS-3 FLR-5 SCH-H HPLCMT-WEST ZN NECB SYSTEM 3 PSZ,Air,NODE 575,NODE 576
 Branch List,46,SP-PATROOM8_FLR_3 SYS-3 FLR-4 SCH-H HPLCMT-NORTH ZN NECB SYSTEM 3 PSZ SUPPLY BRANCHES,SP-PATROOM8_FLR_3 SYS-3 FLR-4 SCH-H HPLCMT-NORTH ZN NECB SYSTEM 3 PSZ,Air,1
   Branch,1,SP-PATROOM8_FLR_3 SYS-3 FLR-4 SCH-H HPLCMT-NORTH ZN NECB SYSTEM 3 PSZ MAIN BRANCH,SP-PATROOM8_FLR_3 SYS-3 FLR-4 SCH-H HPLCMT-NORTH ZN NECB SYSTEM 3 PSZ,Air,NODE 380,NODE 381
 Branch List,47,SP-PATROOM8_FLR_4 SYS-3 FLR-5 SCH-H HPLCMT-NORTH ZN NECB SYSTEM 3 PSZ SUPPLY BRANCHES,SP-PATROOM8_FLR_4 SYS-3 FLR-5 SCH-H HPLCMT-NORTH ZN NECB SYSTEM 3 PSZ,Air,1
   Branch,1,SP-PATROOM8_FLR_4 SYS-3 FLR-5 SCH-H HPLCMT-NORTH ZN NECB SYSTEM 3 PSZ MAIN BRANCH,SP-PATROOM8_FLR_4 SYS-3 FLR-5 SCH-H HPLCMT-NORTH ZN NECB SYSTEM 3 PSZ,Air,NODE 549,NODE 550
 Branch List,48,SP-PHYSTHERAPY_FLR_3 SYS-3 FLR-4 SCH-C HPLCMT-CORE ZN NECB SYSTEM 3 PSZ SUPPLY BRANCHES,SP-PHYSTHERAPY_FLR_3 SYS-3 FLR-4 SCH-C HPLCMT-CORE ZN NECB SYSTEM 3 PSZ,Air,1
   Branch,1,SP-PHYSTHERAPY_FLR_3 SYS-3 FLR-4 SCH-C HPLCMT-CORE ZN NECB SYSTEM 3 PSZ MAIN BRANCH,SP-PHYSTHERAPY_FLR_3 SYS-3 FLR-4 SCH-C HPLCMT-CORE ZN NECB SYSTEM 3 PSZ,Air,NODE 471,NODE 472
 Branch List,49,SP-RADIOLOGY_FLR_4 SYS-3 FLR-5 SCH-H HPLCMT-CORE ZN NECB SYSTEM 3 PSZ SUPPLY BRANCHES,SP-RADIOLOGY_FLR_4 SYS-3 FLR-5 SCH-H HPLCMT-CORE ZN NECB SYSTEM 3 PSZ,Air,1
   Branch,1,SP-RADIOLOGY_FLR_4 SYS-3 FLR-5 SCH-H HPLCMT-CORE ZN NECB SYSTEM 3 PSZ MAIN BRANCH,SP-RADIOLOGY_FLR_4 SYS-3 FLR-5 SCH-H HPLCMT-CORE ZN NECB SYSTEM 3 PSZ,Air,NODE 640,NODE 641
 Branch List,50,VAV WITH REHEAT SUPPLY BRANCHES,VAV WITH REHEAT,Air,1
   Branch,1,VAV WITH REHEAT MAIN BRANCH,VAV WITH REHEAT,Air,NODE 732,NODE 733
 Branch List,51,VAV WITH REHEAT 1 SUPPLY BRANCHES,VAV WITH REHEAT 1,Air,1
   Branch,1,VAV WITH REHEAT 1 MAIN BRANCH,VAV WITH REHEAT 1,Air,NODE 759,NODE 760
 Branch List,52,CHILLED WATER LOOP SUPPLY BRANCHES,CHILLED WATER LOOP,Plant Supply,5
   Branch,1,CHILLED WATER LOOP SUPPLY INLET BRANCH,CHILLED WATER LOOP,Plant Supply,NODE 705,NODE 711
   Branch,2,CHILLED WATER LOOP SUPPLY BRANCH 1,CHILLED WATER LOOP,Plant Supply,NODE 707,NODE 712
   Branch,3,CHILLED WATER LOOP SUPPLY BRANCH 2,CHILLED WATER LOOP,Plant Supply,NODE 713,NODE 714
   Branch,4,CHILLED WATER LOOP SUPPLY BRANCH 3,CHILLED WATER LOOP,Plant Supply,NODE 715,NODE 716
   Branch,5,CHILLED WATER LOOP SUPPLY OUTLET BRANCH,CHILLED WATER LOOP,Plant Supply,NODE 717,NODE 706
 Branch List,53,CHILLED WATER LOOP DEMAND BRANCHES,CHILLED WATER LOOP,Plant Demand,5
   Branch,1,CHILLED WATER LOOP DEMAND INLET BRANCH,CHILLED WATER LOOP,Plant Demand,NODE 708,CHILLED WATER LOOP DEMAND INLET PIPE NODE
   Branch,2,CHILLED WATER LOOP DEMAND BRANCH 1,CHILLED WATER LOOP,Plant Demand,NODE 710,NODE 739
   Branch,3,CHILLED WATER LOOP DEMAND BRANCH 2,CHILLED WATER LOOP,Plant Demand,NODE 766,NODE 767
   Branch,4,CHILLED WATER LOOP DEMAND BYPASS BRANCH,CHILLED WATER LOOP,Plant Demand,CHILLED WATER LOOP DEMAND BYPASS PIPE INLET NODE,CHILLED WATER LOOP DEMAND BYPASS PIPE OUTLET NODE
   Branch,5,CHILLED WATER LOOP DEMAND OUTLET BRANCH,CHILLED WATER LOOP,Plant Demand,CHILLED WATER LOOP DEMAND OUTLET PIPE NODE,NODE 709
 Branch List,54,CONDENSER WATER LOOP SUPPLY BRANCHES,CONDENSER WATER LOOP,Plant Supply,4
   Branch,1,CONDENSER WATER LOOP SUPPLY INLET BRANCH,CONDENSER WATER LOOP,Plant Supply,NODE 718,NODE 724
   Branch,2,CONDENSER WATER LOOP SUPPLY BRANCH 1,CONDENSER WATER LOOP,Plant Supply,NODE 720,NODE 725
   Branch,3,CONDENSER WATER LOOP SUPPLY BRANCH 2,CONDENSER WATER LOOP,Plant Supply,NODE 726,NODE 727
   Branch,4,CONDENSER WATER LOOP SUPPLY OUTLET BRANCH,CONDENSER WATER LOOP,Plant Supply,NODE 728,NODE 719
 Branch List,55,CONDENSER WATER LOOP DEMAND BRANCHES,CONDENSER WATER LOOP,Plant Demand,5
   Branch,1,CONDENSER WATER LOOP DEMAND INLET BRANCH,CONDENSER WATER LOOP,Plant Demand,NODE 721,CONDENSER WATER LOOP DEMAND INLET PIPE NODE
   Branch,2,CONDENSER WATER LOOP DEMAND BRANCH 1,CONDENSER WATER LOOP,Plant Demand,NODE 723,NODE 729
   Branch,3,CONDENSER WATER LOOP DEMAND BRANCH 2,CONDENSER WATER LOOP,Plant Demand,NODE 730,NODE 731
   Branch,4,CONDENSER WATER LOOP DEMAND BYPASS BRANCH,CONDENSER WATER LOOP,Plant Demand,CONDENSER WATER LOOP DEMAND BYPASS PIPE INLET NODE,CONDENSER WATER LOOP DEMAND BYPASS PIPE OUTLET NODE
   Branch,5,CONDENSER WATER LOOP DEMAND OUTLET BRANCH,CONDENSER WATER LOOP,Plant Demand,CONDENSER WATER LOOP DEMAND OUTLET PIPE NODE,NODE 722
 Branch List,56,HOT WATER LOOP SUPPLY BRANCHES,HOT WATER LOOP,Plant Supply,5
   Branch,1,HOT WATER LOOP SUPPLY INLET BRANCH,HOT WATER LOOP,Plant Supply,NODE 56,NODE 62
   Branch,2,HOT WATER LOOP SUPPLY BRANCH 1,HOT WATER LOOP,Plant Supply,NODE 58,NODE 63
   Branch,3,HOT WATER LOOP SUPPLY BRANCH 2,HOT WATER LOOP,Plant Supply,NODE 64,NODE 65
   Branch,4,HOT WATER LOOP SUPPLY BRANCH 3,HOT WATER LOOP,Plant Supply,NODE 66,NODE 67
   Branch,5,HOT WATER LOOP SUPPLY OUTLET BRANCH,HOT WATER LOOP,Plant Supply,NODE 68,NODE 57
 Branch List,57,HOT WATER LOOP DEMAND BRANCHES,HOT WATER LOOP,Plant Demand,66
   Branch,1,HOT WATER LOOP DEMAND INLET BRANCH,HOT WATER LOOP,Plant Demand,NODE 59,HOT WATER LOOP DEMAND INLET PIPE NODE
   Branch,2,HOT WATER LOOP DEMAND BRANCH 1,HOT WATER LOOP,Plant Demand,NODE 61,NODE 80
   Branch,3,HOT WATER LOOP DEMAND BRANCH 2,HOT WATER LOOP,Plant Demand,NODE 92,NODE 93
   Branch,4,HOT WATER LOOP DEMAND BRANCH 3,HOT WATER LOOP,Plant Demand,NODE 105,NODE 106
   Branch,5,HOT WATER LOOP DEMAND BRANCH 4,HOT WATER LOOP,Plant Demand,NODE 118,NODE 119
   Branch,6,HOT WATER LOOP DEMAND BRANCH 5,HOT WATER LOOP,Plant Demand,NODE 131,NODE 132
   Branch,7,HOT WATER LOOP DEMAND BRANCH 6,HOT WATER LOOP,Plant Demand,NODE 144,NODE 145
   Branch,8,HOT WATER LOOP DEMAND BRANCH 7,HOT WATER LOOP,Plant Demand,NODE 157,NODE 158
   Branch,9,HOT WATER LOOP DEMAND BRANCH 8,HOT WATER LOOP,Plant Demand,NODE 170,NODE 171
   Branch,10,HOT WATER LOOP DEMAND BRANCH 9,HOT WATER LOOP,Plant Demand,NODE 183,NODE 184
   Branch,11,HOT WATER LOOP DEMAND BRANCH 10,HOT WATER LOOP,Plant Demand,NODE 196,NODE 197
   Branch,12,HOT WATER LOOP DEMAND BRANCH 11,HOT WATER LOOP,Plant Demand,NODE 209,NODE 210
   Branch,13,HOT WATER LOOP DEMAND BRANCH 12,HOT WATER LOOP,Plant Demand,NODE 222,NODE 223
   Branch,14,HOT WATER LOOP DEMAND BRANCH 13,HOT WATER LOOP,Plant Demand,NODE 235,NODE 236
   Branch,15,HOT WATER LOOP DEMAND BRANCH 14,HOT WATER LOOP,Plant Demand,NODE 248,NODE 249
   Branch,16,HOT WATER LOOP DEMAND BRANCH 15,HOT WATER LOOP,Plant Demand,NODE 261,NODE 262
   Branch,17,HOT WATER LOOP DEMAND BRANCH 16,HOT WATER LOOP,Plant Demand,NODE 274,NODE 275
   Branch,18,HOT WATER LOOP DEMAND BRANCH 17,HOT WATER LOOP,Plant Demand,NODE 287,NODE 288
   Branch,19,HOT WATER LOOP DEMAND BRANCH 18,HOT WATER LOOP,Plant Demand,NODE 300,NODE 301
   Branch,20,HOT WATER LOOP DEMAND BRANCH 19,HOT WATER LOOP,Plant Demand,NODE 313,NODE 314
   Branch,21,HOT WATER LOOP DEMAND BRANCH 20,HOT WATER LOOP,Plant Demand,NODE 326,NODE 327
   Branch,22,HOT WATER LOOP DEMAND BRANCH 21,HOT WATER LOOP,Plant Demand,NODE 339,NODE 340
   Branch,23,HOT WATER LOOP DEMAND BRANCH 22,HOT WATER LOOP,Plant Demand,NODE 352,NODE 353
   Branch,24,HOT WATER LOOP DEMAND BRANCH 23,HOT WATER LOOP,Plant Demand,NODE 365,NODE 366
   Branch,25,HOT WATER LOOP DEMAND BRANCH 24,HOT WATER LOOP,Plant Demand,NODE 378,NODE 379
   Branch,26,HOT WATER LOOP DEMAND BRANCH 25,HOT WATER LOOP,Plant Demand,NODE 391,NODE 392
   Branch,27,HOT WATER LOOP DEMAND BRANCH 26,HOT WATER LOOP,Plant Demand,NODE 404,NODE 405
   Branch,28,HOT WATER LOOP DEMAND BRANCH 27,HOT WATER LOOP,Plant Demand,NODE 417,NODE 418
   Branch,29,HOT WATER LOOP DEMAND BRANCH 28,HOT WATER LOOP,Plant Demand,NODE 430,NODE 431
   Branch,30,HOT WATER LOOP DEMAND BRANCH 29,HOT WATER LOOP,Plant Demand,NODE 443,NODE 444
   Branch,31,HOT WATER LOOP DEMAND BRANCH 30,HOT WATER LOOP,Plant Demand,NODE 456,NODE 457
   Branch,32,HOT WATER LOOP DEMAND BRANCH 31,HOT WATER LOOP,Plant Demand,NODE 469,NODE 470
   Branch,33,HOT WATER LOOP DEMAND BRANCH 32,HOT WATER LOOP,Plant Demand,NODE 482,NODE 483
   Branch,34,HOT WATER LOOP DEMAND BRANCH 33,HOT WATER LOOP,Plant Demand,NODE 495,NODE 496
   Branch,35,HOT WATER LOOP DEMAND BRANCH 34,HOT WATER LOOP,Plant Demand,NODE 508,NODE 509
   Branch,36,HOT WATER LOOP DEMAND BRANCH 35,HOT WATER LOOP,Plant Demand,NODE 521,NODE 522
   Branch,37,HOT WATER LOOP DEMAND BRANCH 36,HOT WATER LOOP,Plant Demand,NODE 534,NODE 535
   Branch,38,HOT WATER LOOP DEMAND BRANCH 37,HOT WATER LOOP,Plant Demand,NODE 547,NODE 548
   Branch,39,HOT WATER LOOP DEMAND BRANCH 38,HOT WATER LOOP,Plant Demand,NODE 560,NODE 561
   Branch,40,HOT WATER LOOP DEMAND BRANCH 39,HOT WATER LOOP,Plant Demand,NODE 573,NODE 574
   Branch,41,HOT WATER LOOP DEMAND BRANCH 40,HOT WATER LOOP,Plant Demand,NODE 586,NODE 587
   Branch,42,HOT WATER LOOP DEMAND BRANCH 41,HOT WATER LOOP,Plant Demand,NODE 599,NODE 600
   Branch,43,HOT WATER LOOP DEMAND BRANCH 42,HOT WATER LOOP,Plant Demand,NODE 612,NODE 613
   Branch,44,HOT WATER LOOP DEMAND BRANCH 43,HOT WATER LOOP,Plant Demand,NODE 625,NODE 626
   Branch,45,HOT WATER LOOP DEMAND BRANCH 44,HOT WATER LOOP,Plant Demand,NODE 638,NODE 639
   Branch,46,HOT WATER LOOP DEMAND BRANCH 45,HOT WATER LOOP,Plant Demand,NODE 651,NODE 652
   Branch,47,HOT WATER LOOP DEMAND BRANCH 46,HOT WATER LOOP,Plant Demand,NODE 664,NODE 665
   Branch,48,HOT WATER LOOP DEMAND BRANCH 47,HOT WATER LOOP,Plant Demand,NODE 677,NODE 678
   Branch,49,HOT WATER LOOP DEMAND BRANCH 48,HOT WATER LOOP,Plant Demand,NODE 690,NODE 691
   Branch,50,HOT WATER LOOP DEMAND BRANCH 49,HOT WATER LOOP,Plant Demand,NODE 703,NODE 704
   Branch,51,HOT WATER LOOP DEMAND BRANCH 50,HOT WATER LOOP,Plant Demand,NODE 737,NODE 738
   Branch,52,HOT WATER LOOP DEMAND BRANCH 51,HOT WATER LOOP,Plant Demand,NODE 746,NODE 747
   Branch,53,HOT WATER LOOP DEMAND BRANCH 52,HOT WATER LOOP,Plant Demand,NODE 750,NODE 751
   Branch,54,HOT WATER LOOP DEMAND BRANCH 53,HOT WATER LOOP,Plant Demand,NODE 752,NODE 753
   Branch,55,HOT WATER LOOP DEMAND BRANCH 54,HOT WATER LOOP,Plant Demand,NODE 757,NODE 758
   Branch,56,HOT WATER LOOP DEMAND BRANCH 55,HOT WATER LOOP,Plant Demand,NODE 764,NODE 765
   Branch,57,HOT WATER LOOP DEMAND BRANCH 56,HOT WATER LOOP,Plant Demand,NODE 774,NODE 775
   Branch,58,HOT WATER LOOP DEMAND BRANCH 57,HOT WATER LOOP,Plant Demand,NODE 778,NODE 779
   Branch,59,HOT WATER LOOP DEMAND BRANCH 58,HOT WATER LOOP,Plant Demand,NODE 780,NODE 781
   Branch,60,HOT WATER LOOP DEMAND BRANCH 59,HOT WATER LOOP,Plant Demand,NODE 785,NODE 786
   Branch,61,HOT WATER LOOP DEMAND BRANCH 60,HOT WATER LOOP,Plant Demand,NODE 787,NODE 788
   Branch,62,HOT WATER LOOP DEMAND BRANCH 61,HOT WATER LOOP,Plant Demand,NODE 792,NODE 793
   Branch,63,HOT WATER LOOP DEMAND BRANCH 62,HOT WATER LOOP,Plant Demand,NODE 794,NODE 795
   Branch,64,HOT WATER LOOP DEMAND BRANCH 63,HOT WATER LOOP,Plant Demand,NODE 799,NODE 800
   Branch,65,HOT WATER LOOP DEMAND BYPASS BRANCH,HOT WATER LOOP,Plant Demand,HOT WATER LOOP DEMAND BYPASS PIPE INLET NODE,HOT WATER LOOP DEMAND BYPASS PIPE OUTLET NODE
   Branch,66,HOT WATER LOOP DEMAND OUTLET BRANCH,HOT WATER LOOP,Plant Demand,HOT WATER LOOP DEMAND OUTLET PIPE NODE,NODE 60
 Branch List,58,MAIN SERVICE WATER LOOP SUPPLY BRANCHES,MAIN SERVICE WATER LOOP,Plant Supply,4
   Branch,1,MAIN SERVICE WATER LOOP SUPPLY INLET BRANCH,MAIN SERVICE WATER LOOP,Plant Supply,NODE 801,NODE 807
   Branch,2,MAIN SERVICE WATER LOOP SUPPLY BRANCH 1,MAIN SERVICE WATER LOOP,Plant Supply,NODE 803,NODE 808
   Branch,3,MAIN SERVICE WATER LOOP SUPPLY BRANCH 2,MAIN SERVICE WATER LOOP,Plant Supply,NODE 809,NODE 810
   Branch,4,MAIN SERVICE WATER LOOP SUPPLY OUTLET BRANCH,MAIN SERVICE WATER LOOP,Plant Supply,NODE 812,NODE 802
 Branch List,59,MAIN SERVICE WATER LOOP DEMAND BRANCHES,MAIN SERVICE WATER LOOP,Plant Demand,52
   Branch,1,MAIN SERVICE WATER LOOP DEMAND INLET BRANCH,MAIN SERVICE WATER LOOP,Plant Demand,NODE 804,NODE 813
   Branch,2,MAIN SERVICE WATER LOOP DEMAND BRANCH 1,MAIN SERVICE WATER LOOP,Plant Demand,NODE 806,NODE 811
   Branch,3,MAIN SERVICE WATER LOOP DEMAND BRANCH 2,MAIN SERVICE WATER LOOP,Plant Demand,NODE 815,NODE 816
   Branch,4,MAIN SERVICE WATER LOOP DEMAND BRANCH 3,MAIN SERVICE WATER LOOP,Plant Demand,NODE 817,NODE 818
   Branch,5,MAIN SERVICE WATER LOOP DEMAND BRANCH 4,MAIN SERVICE WATER LOOP,Plant Demand,NODE 819,NODE 820
   Branch,6,MAIN SERVICE WATER LOOP DEMAND BRANCH 5,MAIN SERVICE WATER LOOP,Plant Demand,NODE 821,NODE 822
   Branch,7,MAIN SERVICE WATER LOOP DEMAND BRANCH 6,MAIN SERVICE WATER LOOP,Plant Demand,NODE 823,NODE 824
   Branch,8,MAIN SERVICE WATER LOOP DEMAND BRANCH 7,MAIN SERVICE WATER LOOP,Plant Demand,NODE 825,NODE 826
   Branch,9,MAIN SERVICE WATER LOOP DEMAND BRANCH 8,MAIN SERVICE WATER LOOP,Plant Demand,NODE 827,NODE 828
   Branch,10,MAIN SERVICE WATER LOOP DEMAND BRANCH 9,MAIN SERVICE WATER LOOP,Plant Demand,NODE 829,NODE 830
   Branch,11,MAIN SERVICE WATER LOOP DEMAND BRANCH 10,MAIN SERVICE WATER LOOP,Plant Demand,NODE 831,NODE 832
   Branch,12,MAIN SERVICE WATER LOOP DEMAND BRANCH 11,MAIN SERVICE WATER LOOP,Plant Demand,NODE 833,NODE 834
   Branch,13,MAIN SERVICE WATER LOOP DEMAND BRANCH 12,MAIN SERVICE WATER LOOP,Plant Demand,NODE 835,NODE 836
   Branch,14,MAIN SERVICE WATER LOOP DEMAND BRANCH 13,MAIN SERVICE WATER LOOP,Plant Demand,NODE 837,NODE 838
   Branch,15,MAIN SERVICE WATER LOOP DEMAND BRANCH 14,MAIN SERVICE WATER LOOP,Plant Demand,NODE 839,NODE 840
   Branch,16,MAIN SERVICE WATER LOOP DEMAND BRANCH 15,MAIN SERVICE WATER LOOP,Plant Demand,NODE 841,NODE 842
   Branch,17,MAIN SERVICE WATER LOOP DEMAND BRANCH 16,MAIN SERVICE WATER LOOP,Plant Demand,NODE 843,NODE 844
   Branch,18,MAIN SERVICE WATER LOOP DEMAND BRANCH 17,MAIN SERVICE WATER LOOP,Plant Demand,NODE 845,NODE 846
   Branch,19,MAIN SERVICE WATER LOOP DEMAND BRANCH 18,MAIN SERVICE WATER LOOP,Plant Demand,NODE 847,NODE 848
   Branch,20,MAIN SERVICE WATER LOOP DEMAND BRANCH 19,MAIN SERVICE WATER LOOP,Plant Demand,NODE 849,NODE 850
   Branch,21,MAIN SERVICE WATER LOOP DEMAND BRANCH 20,MAIN SERVICE WATER LOOP,Plant Demand,NODE 851,NODE 852
   Branch,22,MAIN SERVICE WATER LOOP DEMAND BRANCH 21,MAIN SERVICE WATER LOOP,Plant Demand,NODE 853,NODE 854
   Branch,23,MAIN SERVICE WATER LOOP DEMAND BRANCH 22,MAIN SERVICE WATER LOOP,Plant Demand,NODE 855,NODE 856
   Branch,24,MAIN SERVICE WATER LOOP DEMAND BRANCH 23,MAIN SERVICE WATER LOOP,Plant Demand,NODE 857,NODE 858
   Branch,25,MAIN SERVICE WATER LOOP DEMAND BRANCH 24,MAIN SERVICE WATER LOOP,Plant Demand,NODE 859,NODE 860
   Branch,26,MAIN SERVICE WATER LOOP DEMAND BRANCH 25,MAIN SERVICE WATER LOOP,Plant Demand,NODE 861,NODE 862
   Branch,27,MAIN SERVICE WATER LOOP DEMAND BRANCH 26,MAIN SERVICE WATER LOOP,Plant Demand,NODE 863,NODE 864
   Branch,28,MAIN SERVICE WATER LOOP DEMAND BRANCH 27,MAIN SERVICE WATER LOOP,Plant Demand,NODE 865,NODE 866
   Branch,29,MAIN SERVICE WATER LOOP DEMAND BRANCH 28,MAIN SERVICE WATER LOOP,Plant Demand,NODE 867,NODE 868
   Branch,30,MAIN SERVICE WATER LOOP DEMAND BRANCH 29,MAIN SERVICE WATER LOOP,Plant Demand,NODE 869,NODE 870
   Branch,31,MAIN SERVICE WATER LOOP DEMAND BRANCH 30,MAIN SERVICE WATER LOOP,Plant Demand,NODE 871,NODE 872
   Branch,32,MAIN SERVICE WATER LOOP DEMAND BRANCH 31,MAIN SERVICE WATER LOOP,Plant Demand,NODE 873,NODE 874
   Branch,33,MAIN SERVICE WATER LOOP DEMAND BRANCH 32,MAIN SERVICE WATER LOOP,Plant Demand,NODE 875,NODE 876
   Branch,34,MAIN SERVICE WATER LOOP DEMAND BRANCH 33,MAIN SERVICE WATER LOOP,Plant Demand,NODE 877,NODE 878
   Branch,35,MAIN SERVICE WATER LOOP DEMAND BRANCH 34,MAIN SERVICE WATER LOOP,Plant Demand,NODE 879,NODE 880
   Branch,36,MAIN SERVICE WATER LOOP DEMAND BRANCH 35,MAIN SERVICE WATER LOOP,Plant Demand,NODE 881,NODE 882
   Branch,37,MAIN SERVICE WATER LOOP DEMAND BRANCH 36,MAIN SERVICE WATER LOOP,Plant Demand,NODE 883,NODE 884
   Branch,38,MAIN SERVICE WATER LOOP DEMAND BRANCH 37,MAIN SERVICE WATER LOOP,Plant Demand,NODE 885,NODE 886
   Branch,39,MAIN SERVICE WATER LOOP DEMAND BRANCH 38,MAIN SERVICE WATER LOOP,Plant Demand,NODE 887,NODE 888
   Branch,40,MAIN SERVICE WATER LOOP DEMAND BRANCH 39,MAIN SERVICE WATER LOOP,Plant Demand,NODE 889,NODE 890
   Branch,41,MAIN SERVICE WATER LOOP DEMAND BRANCH 40,MAIN SERVICE WATER LOOP,Plant Demand,NODE 891,NODE 892
   Branch,42,MAIN SERVICE WATER LOOP DEMAND BRANCH 41,MAIN SERVICE WATER LOOP,Plant Demand,NODE 893,NODE 894
   Branch,43,MAIN SERVICE WATER LOOP DEMAND BRANCH 42,MAIN SERVICE WATER LOOP,Plant Demand,NODE 895,NODE 896
   Branch,44,MAIN SERVICE WATER LOOP DEMAND BRANCH 43,MAIN SERVICE WATER LOOP,Plant Demand,NODE 897,NODE 898
   Branch,45,MAIN SERVICE WATER LOOP DEMAND BRANCH 44,MAIN SERVICE WATER LOOP,Plant Demand,NODE 899,NODE 900
   Branch,46,MAIN SERVICE WATER LOOP DEMAND BRANCH 45,MAIN SERVICE WATER LOOP,Plant Demand,NODE 901,NODE 902
   Branch,47,MAIN SERVICE WATER LOOP DEMAND BRANCH 46,MAIN SERVICE WATER LOOP,Plant Demand,NODE 903,NODE 904
   Branch,48,MAIN SERVICE WATER LOOP DEMAND BRANCH 47,MAIN SERVICE WATER LOOP,Plant Demand,NODE 905,NODE 906
   Branch,49,MAIN SERVICE WATER LOOP DEMAND BRANCH 48,MAIN SERVICE WATER LOOP,Plant Demand,NODE 907,NODE 908
   Branch,50,MAIN SERVICE WATER LOOP DEMAND BRANCH 49,MAIN SERVICE WATER LOOP,Plant Demand,NODE 909,NODE 910
   Branch,51,MAIN SERVICE WATER LOOP DEMAND BYPASS BRANCH,MAIN SERVICE WATER LOOP,Plant Demand,MAIN SERVICE WATER LOOP DEMAND BYPASS PIPE INLET NODE,MAIN SERVICE WATER LOOP DEMAND BYPASS PIPE OUTLET NODE
   Branch,52,MAIN SERVICE WATER LOOP DEMAND OUTLET BRANCH,MAIN SERVICE WATER LOOP,Plant Demand,NODE 814,NODE 805
! ===============================================================
! <#Supply Air Paths>,<Number of Supply Air Paths>
 #Supply Air Paths,51
! <Supply Air Path>,<Supply Air Path Count>,<Supply Air Path Name>,<AirLoopHVAC Name>
! <#Components on Supply Air Path>,<Number of Components>
! <Supply Air Path Component>,<Component Count>,<Component Type>,<Component Name>,<AirLoopHVAC Name>
! <#Outlet Nodes on Supply Air Path Component>,<Number of Nodes>
! <Supply Air Path Component Nodes>,<Node Count>,<Component Type>,<Component Name>,<Inlet Node Name>,<Outlet Node Name>,<AirLoopHVAC Name>
 Supply Air Path,1,SP-BASEMENT SYS-3 FLR-1 SCH-A HPLCMT-NORTH ZN NECB SYSTEM 3 PSZ NODE 71 SUPPLY PATH,SP-BASEMENT SYS-3 FLR-1 SCH-A HPLCMT-NORTH ZN NECB SYSTEM 3 PSZ
   #Components on Supply Air Path,1
   Supply Air Path Component,1,AIRLOOPHVAC:ZONESPLITTER,AIR LOOP HVAC ZONE SPLITTER 1,SP-BASEMENT SYS-3 FLR-1 SCH-A HPLCMT-NORTH ZN NECB SYSTEM 3 PSZ
     #Outlet Nodes on Supply Air Path Component,1
     Supply Air Path Component Nodes,1,AIRLOOPHVAC:ZONESPLITTER,AIR LOOP HVAC ZONE SPLITTER 1,NODE 71,NODE 73,SP-BASEMENT SYS-3 FLR-1 SCH-A HPLCMT-NORTH ZN NECB SYSTEM 3 PSZ
! <#Nodes on Supply Air Path>,<Number of Nodes>
! <Supply Air Path Node>,<Node Type>,<Node Count>,<Node Name>,<AirLoopHVAC Name>
#Nodes on Supply Air Path,2
   Supply Air Path Node,Inlet Node,1,NODE 71,SP-BASEMENT SYS-3 FLR-1 SCH-A HPLCMT-NORTH ZN NECB SYSTEM 3 PSZ
   Supply Air Path Node,Outlet Node,2,NODE 73,SP-BASEMENT SYS-3 FLR-1 SCH-A HPLCMT-NORTH ZN NECB SYSTEM 3 PSZ
 Supply Air Path,2,SP-CORRIDOR_FLR_1 SYS-3 FLR-2 SCH-B HPLCMT-NORTH ZN NECB SYSTEM 3 PSZ NODE 83 SUPPLY PATH,SP-CORRIDOR_FLR_1 SYS-3 FLR-2 SCH-B HPLCMT-NORTH ZN NECB SYSTEM 3 PSZ
   #Components on Supply Air Path,1
   Supply Air Path Component,1,AIRLOOPHVAC:ZONESPLITTER,AIR LOOP HVAC ZONE SPLITTER 2,SP-CORRIDOR_FLR_1 SYS-3 FLR-2 SCH-B HPLCMT-NORTH ZN NECB SYSTEM 3 PSZ
     #Outlet Nodes on Supply Air Path Component,1
     Supply Air Path Component Nodes,1,AIRLOOPHVAC:ZONESPLITTER,AIR LOOP HVAC ZONE SPLITTER 2,NODE 83,NODE 85,SP-CORRIDOR_FLR_1 SYS-3 FLR-2 SCH-B HPLCMT-NORTH ZN NECB SYSTEM 3 PSZ
! <#Nodes on Supply Air Path>,<Number of Nodes>
! <Supply Air Path Node>,<Node Type>,<Node Count>,<Node Name>,<AirLoopHVAC Name>
#Nodes on Supply Air Path,2
   Supply Air Path Node,Inlet Node,1,NODE 83,SP-CORRIDOR_FLR_1 SYS-3 FLR-2 SCH-B HPLCMT-NORTH ZN NECB SYSTEM 3 PSZ
   Supply Air Path Node,Outlet Node,2,NODE 85,SP-CORRIDOR_FLR_1 SYS-3 FLR-2 SCH-B HPLCMT-NORTH ZN NECB SYSTEM 3 PSZ
 Supply Air Path,3,SP-CORRIDOR_FLR_2 SYS-3 FLR-3 SCH-B HPLCMT-NORTH ZN NECB SYSTEM 3 PSZ NODE 174 SUPPLY PATH,SP-CORRIDOR_FLR_2 SYS-3 FLR-3 SCH-B HPLCMT-NORTH ZN NECB SYSTEM 3 PSZ
   #Components on Supply Air Path,1
   Supply Air Path Component,1,AIRLOOPHVAC:ZONESPLITTER,AIR LOOP HVAC ZONE SPLITTER 9,SP-CORRIDOR_FLR_2 SYS-3 FLR-3 SCH-B HPLCMT-NORTH ZN NECB SYSTEM 3 PSZ
     #Outlet Nodes on Supply Air Path Component,1
     Supply Air Path Component Nodes,1,AIRLOOPHVAC:ZONESPLITTER,AIR LOOP HVAC ZONE SPLITTER 9,NODE 174,NODE 176,SP-CORRIDOR_FLR_2 SYS-3 FLR-3 SCH-B HPLCMT-NORTH ZN NECB SYSTEM 3 PSZ
! <#Nodes on Supply Air Path>,<Number of Nodes>
! <Supply Air Path Node>,<Node Type>,<Node Count>,<Node Name>,<AirLoopHVAC Name>
#Nodes on Supply Air Path,2
   Supply Air Path Node,Inlet Node,1,NODE 174,SP-CORRIDOR_FLR_2 SYS-3 FLR-3 SCH-B HPLCMT-NORTH ZN NECB SYSTEM 3 PSZ
   Supply Air Path Node,Outlet Node,2,NODE 176,SP-CORRIDOR_FLR_2 SYS-3 FLR-3 SCH-B HPLCMT-NORTH ZN NECB SYSTEM 3 PSZ
 Supply Air Path,4,SP-CORRIDOR_FLR_5 SYS-3 FLR-7 SCH-B HPLCMT-NORTH ZN NECB SYSTEM 3 PSZ NODE 655 SUPPLY PATH,SP-CORRIDOR_FLR_5 SYS-3 FLR-7 SCH-B HPLCMT-NORTH ZN NECB SYSTEM 3 PSZ
   #Components on Supply Air Path,1
   Supply Air Path Component,1,AIRLOOPHVAC:ZONESPLITTER,AIR LOOP HVAC ZONE SPLITTER 46,SP-CORRIDOR_FLR_5 SYS-3 FLR-7 SCH-B HPLCMT-NORTH ZN NECB SYSTEM 3 PSZ
     #Outlet Nodes on Supply Air Path Component,1
     Supply Air Path Component Nodes,1,AIRLOOPHVAC:ZONESPLITTER,AIR LOOP HVAC ZONE SPLITTER 46,NODE 655,NODE 657,SP-CORRIDOR_FLR_5 SYS-3 FLR-7 SCH-B HPLCMT-NORTH ZN NECB SYSTEM 3 PSZ
! <#Nodes on Supply Air Path>,<Number of Nodes>
! <Supply Air Path Node>,<Node Type>,<Node Count>,<Node Name>,<AirLoopHVAC Name>
#Nodes on Supply Air Path,2
   Supply Air Path Node,Inlet Node,1,NODE 655,SP-CORRIDOR_FLR_5 SYS-3 FLR-7 SCH-B HPLCMT-NORTH ZN NECB SYSTEM 3 PSZ
   Supply Air Path Node,Outlet Node,2,NODE 657,SP-CORRIDOR_FLR_5 SYS-3 FLR-7 SCH-B HPLCMT-NORTH ZN NECB SYSTEM 3 PSZ
 Supply Air Path,5,SP-CORRIDOR_NW_FLR_3 SYS-3 FLR-4 SCH-B HPLCMT-NORTH ZN NECB SYSTEM 3 PSZ NODE 330 SUPPLY PATH,SP-CORRIDOR_NW_FLR_3 SYS-3 FLR-4 SCH-B HPLCMT-NORTH ZN NECB SYSTEM 3 PSZ
   #Components on Supply Air Path,1
   Supply Air Path Component,1,AIRLOOPHVAC:ZONESPLITTER,AIR LOOP HVAC ZONE SPLITTER 21,SP-CORRIDOR_NW_FLR_3 SYS-3 FLR-4 SCH-B HPLCMT-NORTH ZN NECB SYSTEM 3 PSZ
     #Outlet Nodes on Supply Air Path Component,1
     Supply Air Path Component Nodes,1,AIRLOOPHVAC:ZONESPLITTER,AIR LOOP HVAC ZONE SPLITTER 21,NODE 330,NODE 332,SP-CORRIDOR_NW_FLR_3 SYS-3 FLR-4 SCH-B HPLCMT-NORTH ZN NECB SYSTEM 3 PSZ
! <#Nodes on Supply Air Path>,<Number of Nodes>
! <Supply Air Path Node>,<Node Type>,<Node Count>,<Node Name>,<AirLoopHVAC Name>
#Nodes on Supply Air Path,2
   Supply Air Path Node,Inlet Node,1,NODE 330,SP-CORRIDOR_NW_FLR_3 SYS-3 FLR-4 SCH-B HPLCMT-NORTH ZN NECB SYSTEM 3 PSZ
   Supply Air Path Node,Outlet Node,2,NODE 332,SP-CORRIDOR_NW_FLR_3 SYS-3 FLR-4 SCH-B HPLCMT-NORTH ZN NECB SYSTEM 3 PSZ
 Supply Air Path,6,SP-CORRIDOR_NW_FLR_4 SYS-3 FLR-5 SCH-B HPLCMT-NORTH ZN NECB SYSTEM 3 PSZ NODE 499 SUPPLY PATH,SP-CORRIDOR_NW_FLR_4 SYS-3 FLR-5 SCH-B HPLCMT-NORTH ZN NECB SYSTEM 3 PSZ
   #Components on Supply Air Path,1
   Supply Air Path Component,1,AIRLOOPHVAC:ZONESPLITTER,AIR LOOP HVAC ZONE SPLITTER 34,SP-CORRIDOR_NW_FLR_4 SYS-3 FLR-5 SCH-B HPLCMT-NORTH ZN NECB SYSTEM 3 PSZ
     #Outlet Nodes on Supply Air Path Component,1
     Supply Air Path Component Nodes,1,AIRLOOPHVAC:ZONESPLITTER,AIR LOOP HVAC ZONE SPLITTER 34,NODE 499,NODE 501,SP-CORRIDOR_NW_FLR_4 SYS-3 FLR-5 SCH-B HPLCMT-NORTH ZN NECB SYSTEM 3 PSZ
! <#Nodes on Supply Air Path>,<Number of Nodes>
! <Supply Air Path Node>,<Node Type>,<Node Count>,<Node Name>,<AirLoopHVAC Name>
#Nodes on Supply Air Path,2
   Supply Air Path Node,Inlet Node,1,NODE 499,SP-CORRIDOR_NW_FLR_4 SYS-3 FLR-5 SCH-B HPLCMT-NORTH ZN NECB SYSTEM 3 PSZ
   Supply Air Path Node,Outlet Node,2,NODE 501,SP-CORRIDOR_NW_FLR_4 SYS-3 FLR-5 SCH-B HPLCMT-NORTH ZN NECB SYSTEM 3 PSZ
 Supply Air Path,7,SP-CORRIDOR_SE_FLR_3 SYS-3 FLR-4 SCH-B HPLCMT-SOUTH ZN NECB SYSTEM 3 PSZ NODE 343 SUPPLY PATH,SP-CORRIDOR_SE_FLR_3 SYS-3 FLR-4 SCH-B HPLCMT-SOUTH ZN NECB SYSTEM 3 PSZ
   #Components on Supply Air Path,1
   Supply Air Path Component,1,AIRLOOPHVAC:ZONESPLITTER,AIR LOOP HVAC ZONE SPLITTER 22,SP-CORRIDOR_SE_FLR_3 SYS-3 FLR-4 SCH-B HPLCMT-SOUTH ZN NECB SYSTEM 3 PSZ
     #Outlet Nodes on Supply Air Path Component,1
     Supply Air Path Component Nodes,1,AIRLOOPHVAC:ZONESPLITTER,AIR LOOP HVAC ZONE SPLITTER 22,NODE 343,NODE 345,SP-CORRIDOR_SE_FLR_3 SYS-3 FLR-4 SCH-B HPLCMT-SOUTH ZN NECB SYSTEM 3 PSZ
! <#Nodes on Supply Air Path>,<Number of Nodes>
! <Supply Air Path Node>,<Node Type>,<Node Count>,<Node Name>,<AirLoopHVAC Name>
#Nodes on Supply Air Path,2
   Supply Air Path Node,Inlet Node,1,NODE 343,SP-CORRIDOR_SE_FLR_3 SYS-3 FLR-4 SCH-B HPLCMT-SOUTH ZN NECB SYSTEM 3 PSZ
   Supply Air Path Node,Outlet Node,2,NODE 345,SP-CORRIDOR_SE_FLR_3 SYS-3 FLR-4 SCH-B HPLCMT-SOUTH ZN NECB SYSTEM 3 PSZ
 Supply Air Path,8,SP-CORRIDOR_SE_FLR_4 SYS-3 FLR-5 SCH-B HPLCMT-SOUTH ZN NECB SYSTEM 3 PSZ NODE 512 SUPPLY PATH,SP-CORRIDOR_SE_FLR_4 SYS-3 FLR-5 SCH-B HPLCMT-SOUTH ZN NECB SYSTEM 3 PSZ
   #Components on Supply Air Path,1
   Supply Air Path Component,1,AIRLOOPHVAC:ZONESPLITTER,AIR LOOP HVAC ZONE SPLITTER 35,SP-CORRIDOR_SE_FLR_4 SYS-3 FLR-5 SCH-B HPLCMT-SOUTH ZN NECB SYSTEM 3 PSZ
     #Outlet Nodes on Supply Air Path Component,1
     Supply Air Path Component Nodes,1,AIRLOOPHVAC:ZONESPLITTER,AIR LOOP HVAC ZONE SPLITTER 35,NODE 512,NODE 514,SP-CORRIDOR_SE_FLR_4 SYS-3 FLR-5 SCH-B HPLCMT-SOUTH ZN NECB SYSTEM 3 PSZ
! <#Nodes on Supply Air Path>,<Number of Nodes>
! <Supply Air Path Node>,<Node Type>,<Node Count>,<Node Name>,<AirLoopHVAC Name>
#Nodes on Supply Air Path,2
   Supply Air Path Node,Inlet Node,1,NODE 512,SP-CORRIDOR_SE_FLR_4 SYS-3 FLR-5 SCH-B HPLCMT-SOUTH ZN NECB SYSTEM 3 PSZ
   Supply Air Path Node,Outlet Node,2,NODE 514,SP-CORRIDOR_SE_FLR_4 SYS-3 FLR-5 SCH-B HPLCMT-SOUTH ZN NECB SYSTEM 3 PSZ
 Supply Air Path,9,SP-DINING_FLR_5 SYS-3 FLR-7 SCH-B HPLCMT-SOUTH ZN NECB SYSTEM 3 PSZ NODE 681 SUPPLY PATH,SP-DINING_FLR_5 SYS-3 FLR-7 SCH-B HPLCMT-SOUTH ZN NECB SYSTEM 3 PSZ
   #Components on Supply Air Path,1
   Supply Air Path Component,1,AIRLOOPHVAC:ZONESPLITTER,AIR LOOP HVAC ZONE SPLITTER 48,SP-DINING_FLR_5 SYS-3 FLR-7 SCH-B HPLCMT-SOUTH ZN NECB SYSTEM 3 PSZ
     #Outlet Nodes on Supply Air Path Component,1
     Supply Air Path Component Nodes,1,AIRLOOPHVAC:ZONESPLITTER,AIR LOOP HVAC ZONE SPLITTER 48,NODE 681,NODE 683,SP-DINING_FLR_5 SYS-3 FLR-7 SCH-B HPLCMT-SOUTH ZN NECB SYSTEM 3 PSZ
! <#Nodes on Supply Air Path>,<Number of Nodes>
! <Supply Air Path Node>,<Node Type>,<Node Count>,<Node Name>,<AirLoopHVAC Name>
#Nodes on Supply Air Path,2
   Supply Air Path Node,Inlet Node,1,NODE 681,SP-DINING_FLR_5 SYS-3 FLR-7 SCH-B HPLCMT-SOUTH ZN NECB SYSTEM 3 PSZ
   Supply Air Path Node,Outlet Node,2,NODE 683,SP-DINING_FLR_5 SYS-3 FLR-7 SCH-B HPLCMT-SOUTH ZN NECB SYSTEM 3 PSZ
 Supply Air Path,10,SP-ER_EXAM1_MULT4_FLR_1 SYS-3 FLR-2 SCH-H HPLCMT-SOUTH ZN NECB SYSTEM 3 PSZ NODE 148 SUPPLY PATH,SP-ER_EXAM1_MULT4_FLR_1 SYS-3 FLR-2 SCH-H HPLCMT-SOUTH ZN NECB SYSTEM 3 PSZ
   #Components on Supply Air Path,1
   Supply Air Path Component,1,AIRLOOPHVAC:ZONESPLITTER,AIR LOOP HVAC ZONE SPLITTER 7,SP-ER_EXAM1_MULT4_FLR_1 SYS-3 FLR-2 SCH-H HPLCMT-SOUTH ZN NECB SYSTEM 3 PSZ
     #Outlet Nodes on Supply Air Path Component,1
     Supply Air Path Component Nodes,1,AIRLOOPHVAC:ZONESPLITTER,AIR LOOP HVAC ZONE SPLITTER 7,NODE 148,NODE 150,SP-ER_EXAM1_MULT4_FLR_1 SYS-3 FLR-2 SCH-H HPLCMT-SOUTH ZN NECB SYSTEM 3 PSZ
! <#Nodes on Supply Air Path>,<Number of Nodes>
! <Supply Air Path Node>,<Node Type>,<Node Count>,<Node Name>,<AirLoopHVAC Name>
#Nodes on Supply Air Path,2
   Supply Air Path Node,Inlet Node,1,NODE 148,SP-ER_EXAM1_MULT4_FLR_1 SYS-3 FLR-2 SCH-H HPLCMT-SOUTH ZN NECB SYSTEM 3 PSZ
   Supply Air Path Node,Outlet Node,2,NODE 150,SP-ER_EXAM1_MULT4_FLR_1 SYS-3 FLR-2 SCH-H HPLCMT-SOUTH ZN NECB SYSTEM 3 PSZ
 Supply Air Path,11,SP-ER_EXAM3_MULT4_FLR_1 SYS-3 FLR-2 SCH-H HPLCMT-EAST ZN NECB SYSTEM 3 PSZ NODE 122 SUPPLY PATH,SP-ER_EXAM3_MULT4_FLR_1 SYS-3 FLR-2 SCH-H HPLCMT-EAST ZN NECB SYSTEM 3 PSZ
   #Components on Supply Air Path,1
   Supply Air Path Component,1,AIRLOOPHVAC:ZONESPLITTER,AIR LOOP HVAC ZONE SPLITTER 5,SP-ER_EXAM3_MULT4_FLR_1 SYS-3 FLR-2 SCH-H HPLCMT-EAST ZN NECB SYSTEM 3 PSZ
     #Outlet Nodes on Supply Air Path Component,1
     Supply Air Path Component Nodes,1,AIRLOOPHVAC:ZONESPLITTER,AIR LOOP HVAC ZONE SPLITTER 5,NODE 122,NODE 124,SP-ER_EXAM3_MULT4_FLR_1 SYS-3 FLR-2 SCH-H HPLCMT-EAST ZN NECB SYSTEM 3 PSZ
! <#Nodes on Supply Air Path>,<Number of Nodes>
! <Supply Air Path Node>,<Node Type>,<Node Count>,<Node Name>,<AirLoopHVAC Name>
#Nodes on Supply Air Path,2
   Supply Air Path Node,Inlet Node,1,NODE 122,SP-ER_EXAM3_MULT4_FLR_1 SYS-3 FLR-2 SCH-H HPLCMT-EAST ZN NECB SYSTEM 3 PSZ
   Supply Air Path Node,Outlet Node,2,NODE 124,SP-ER_EXAM3_MULT4_FLR_1 SYS-3 FLR-2 SCH-H HPLCMT-EAST ZN NECB SYSTEM 3 PSZ
 Supply Air Path,12,SP-ER_NURSESTN_LOBBY_FLR_1 SYS-3 FLR-2 SCH-H HPLCMT-EAST ZN NECB SYSTEM 3 PSZ NODE 135 SUPPLY PATH,SP-ER_NURSESTN_LOBBY_FLR_1 SYS-3 FLR-2 SCH-H HPLCMT-EAST ZN NECB SYSTEM 3 PSZ
   #Components on Supply Air Path,1
   Supply Air Path Component,1,AIRLOOPHVAC:ZONESPLITTER,AIR LOOP HVAC ZONE SPLITTER 6,SP-ER_NURSESTN_LOBBY_FLR_1 SYS-3 FLR-2 SCH-H HPLCMT-EAST ZN NECB SYSTEM 3 PSZ
     #Outlet Nodes on Supply Air Path Component,1
     Supply Air Path Component Nodes,1,AIRLOOPHVAC:ZONESPLITTER,AIR LOOP HVAC ZONE SPLITTER 6,NODE 135,NODE 137,SP-ER_NURSESTN_LOBBY_FLR_1 SYS-3 FLR-2 SCH-H HPLCMT-EAST ZN NECB SYSTEM 3 PSZ
! <#Nodes on Supply Air Path>,<Number of Nodes>
! <Supply Air Path Node>,<Node Type>,<Node Count>,<Node Name>,<AirLoopHVAC Name>
#Nodes on Supply Air Path,2
   Supply Air Path Node,Inlet Node,1,NODE 135,SP-ER_NURSESTN_LOBBY_FLR_1 SYS-3 FLR-2 SCH-H HPLCMT-EAST ZN NECB SYSTEM 3 PSZ
   Supply Air Path Node,Outlet Node,2,NODE 137,SP-ER_NURSESTN_LOBBY_FLR_1 SYS-3 FLR-2 SCH-H HPLCMT-EAST ZN NECB SYSTEM 3 PSZ
 Supply Air Path,13,SP-ER_TRAUMA1_FLR_1 SYS-3 FLR-2 SCH-H HPLCMT-SOUTH ZN NECB SYSTEM 3 PSZ NODE 161 SUPPLY PATH,SP-ER_TRAUMA1_FLR_1 SYS-3 FLR-2 SCH-H HPLCMT-SOUTH ZN NECB SYSTEM 3 PSZ
   #Components on Supply Air Path,1
   Supply Air Path Component,1,AIRLOOPHVAC:ZONESPLITTER,AIR LOOP HVAC ZONE SPLITTER 8,SP-ER_TRAUMA1_FLR_1 SYS-3 FLR-2 SCH-H HPLCMT-SOUTH ZN NECB SYSTEM 3 PSZ
     #Outlet Nodes on Supply Air Path Component,1
     Supply Air Path Component Nodes,1,AIRLOOPHVAC:ZONESPLITTER,AIR LOOP HVAC ZONE SPLITTER 8,NODE 161,NODE 163,SP-ER_TRAUMA1_FLR_1 SYS-3 FLR-2 SCH-H HPLCMT-SOUTH ZN NECB SYSTEM 3 PSZ
! <#Nodes on Supply Air Path>,<Number of Nodes>
! <Supply Air Path Node>,<Node Type>,<Node Count>,<Node Name>,<AirLoopHVAC Name>
#Nodes on Supply Air Path,2
   Supply Air Path Node,Inlet Node,1,NODE 161,SP-ER_TRAUMA1_FLR_1 SYS-3 FLR-2 SCH-H HPLCMT-SOUTH ZN NECB SYSTEM 3 PSZ
   Supply Air Path Node,Outlet Node,2,NODE 163,SP-ER_TRAUMA1_FLR_1 SYS-3 FLR-2 SCH-H HPLCMT-SOUTH ZN NECB SYSTEM 3 PSZ
 Supply Air Path,14,SP-ER_TRAUMA2_FLR_1 SYS-3 FLR-2 SCH-H HPLCMT-NORTH ZN NECB SYSTEM 3 PSZ NODE 96 SUPPLY PATH,SP-ER_TRAUMA2_FLR_1 SYS-3 FLR-2 SCH-H HPLCMT-NORTH ZN NECB SYSTEM 3 PSZ
   #Components on Supply Air Path,1
   Supply Air Path Component,1,AIRLOOPHVAC:ZONESPLITTER,AIR LOOP HVAC ZONE SPLITTER 3,SP-ER_TRAUMA2_FLR_1 SYS-3 FLR-2 SCH-H HPLCMT-NORTH ZN NECB SYSTEM 3 PSZ
     #Outlet Nodes on Supply Air Path Component,1
     Supply Air Path Component Nodes,1,AIRLOOPHVAC:ZONESPLITTER,AIR LOOP HVAC ZONE SPLITTER 3,NODE 96,NODE 98,SP-ER_TRAUMA2_FLR_1 SYS-3 FLR-2 SCH-H HPLCMT-NORTH ZN NECB SYSTEM 3 PSZ
! <#Nodes on Supply Air Path>,<Number of Nodes>
! <Supply Air Path Node>,<Node Type>,<Node Count>,<Node Name>,<AirLoopHVAC Name>
#Nodes on Supply Air Path,2
   Supply Air Path Node,Inlet Node,1,NODE 96,SP-ER_TRAUMA2_FLR_1 SYS-3 FLR-2 SCH-H HPLCMT-NORTH ZN NECB SYSTEM 3 PSZ
   Supply Air Path Node,Outlet Node,2,NODE 98,SP-ER_TRAUMA2_FLR_1 SYS-3 FLR-2 SCH-H HPLCMT-NORTH ZN NECB SYSTEM 3 PSZ
 Supply Air Path,15,SP-ER_TRIAGE_MULT4_FLR_1 SYS-3 FLR-2 SCH-H HPLCMT-NORTH ZN NECB SYSTEM 3 PSZ NODE 109 SUPPLY PATH,SP-ER_TRIAGE_MULT4_FLR_1 SYS-3 FLR-2 SCH-H HPLCMT-NORTH ZN NECB SYSTEM 3 PSZ
   #Components on Supply Air Path,1
   Supply Air Path Component,1,AIRLOOPHVAC:ZONESPLITTER,AIR LOOP HVAC ZONE SPLITTER 4,SP-ER_TRIAGE_MULT4_FLR_1 SYS-3 FLR-2 SCH-H HPLCMT-NORTH ZN NECB SYSTEM 3 PSZ
     #Outlet Nodes on Supply Air Path Component,1
     Supply Air Path Component Nodes,1,AIRLOOPHVAC:ZONESPLITTER,AIR LOOP HVAC ZONE SPLITTER 4,NODE 109,NODE 111,SP-ER_TRIAGE_MULT4_FLR_1 SYS-3 FLR-2 SCH-H HPLCMT-NORTH ZN NECB SYSTEM 3 PSZ
! <#Nodes on Supply Air Path>,<Number of Nodes>
! <Supply Air Path Node>,<Node Type>,<Node Count>,<Node Name>,<AirLoopHVAC Name>
#Nodes on Supply Air Path,2
   Supply Air Path Node,Inlet Node,1,NODE 109,SP-ER_TRIAGE_MULT4_FLR_1 SYS-3 FLR-2 SCH-H HPLCMT-NORTH ZN NECB SYSTEM 3 PSZ
   Supply Air Path Node,Outlet Node,2,NODE 111,SP-ER_TRIAGE_MULT4_FLR_1 SYS-3 FLR-2 SCH-H HPLCMT-NORTH ZN NECB SYSTEM 3 PSZ
 Supply Air Path,16,SP-ICU_FLR_2 SYS-3 FLR-3 SCH-H HPLCMT-SOUTH ZN NECB SYSTEM 3 PSZ NODE 265 SUPPLY PATH,SP-ICU_FLR_2 SYS-3 FLR-3 SCH-H HPLCMT-SOUTH ZN NECB SYSTEM 3 PSZ
   #Components on Supply Air Path,1
   Supply Air Path Component,1,AIRLOOPHVAC:ZONESPLITTER,AIR LOOP HVAC ZONE SPLITTER 16,SP-ICU_FLR_2 SYS-3 FLR-3 SCH-H HPLCMT-SOUTH ZN NECB SYSTEM 3 PSZ
     #Outlet Nodes on Supply Air Path Component,1
     Supply Air Path Component Nodes,1,AIRLOOPHVAC:ZONESPLITTER,AIR LOOP HVAC ZONE SPLITTER 16,NODE 265,NODE 267,SP-ICU_FLR_2 SYS-3 FLR-3 SCH-H HPLCMT-SOUTH ZN NECB SYSTEM 3 PSZ
! <#Nodes on Supply Air Path>,<Number of Nodes>
! <Supply Air Path Node>,<Node Type>,<Node Count>,<Node Name>,<AirLoopHVAC Name>
#Nodes on Supply Air Path,2
   Supply Air Path Node,Inlet Node,1,NODE 265,SP-ICU_FLR_2 SYS-3 FLR-3 SCH-H HPLCMT-SOUTH ZN NECB SYSTEM 3 PSZ
   Supply Air Path Node,Outlet Node,2,NODE 267,SP-ICU_FLR_2 SYS-3 FLR-3 SCH-H HPLCMT-SOUTH ZN NECB SYSTEM 3 PSZ
 Supply Air Path,17,SP-ICU_NURSESTN_LOBBY_FLR_2 SYS-3 FLR-3 SCH-H HPLCMT-CORE ZN NECB SYSTEM 3 PSZ NODE 291 SUPPLY PATH,SP-ICU_NURSESTN_LOBBY_FLR_2 SYS-3 FLR-3 SCH-H HPLCMT-CORE ZN NECB SYSTEM 3 PSZ
   #Components on Supply Air Path,1
   Supply Air Path Component,1,AIRLOOPHVAC:ZONESPLITTER,AIR LOOP HVAC ZONE SPLITTER 18,SP-ICU_NURSESTN_LOBBY_FLR_2 SYS-3 FLR-3 SCH-H HPLCMT-CORE ZN NECB SYSTEM 3 PSZ
     #Outlet Nodes on Supply Air Path Component,1
     Supply Air Path Component Nodes,1,AIRLOOPHVAC:ZONESPLITTER,AIR LOOP HVAC ZONE SPLITTER 18,NODE 291,NODE 293,SP-ICU_NURSESTN_LOBBY_FLR_2 SYS-3 FLR-3 SCH-H HPLCMT-CORE ZN NECB SYSTEM 3 PSZ
! <#Nodes on Supply Air Path>,<Number of Nodes>
! <Supply Air Path Node>,<Node Type>,<Node Count>,<Node Name>,<AirLoopHVAC Name>
#Nodes on Supply Air Path,2
   Supply Air Path Node,Inlet Node,1,NODE 291,SP-ICU_NURSESTN_LOBBY_FLR_2 SYS-3 FLR-3 SCH-H HPLCMT-CORE ZN NECB SYSTEM 3 PSZ
   Supply Air Path Node,Outlet Node,2,NODE 293,SP-ICU_NURSESTN_LOBBY_FLR_2 SYS-3 FLR-3 SCH-H HPLCMT-CORE ZN NECB SYSTEM 3 PSZ
 Supply Air Path,18,SP-IC_PATROOM1_MULT5_FLR_2 SYS-3 FLR-3 SCH-H HPLCMT-NORTH ZN NECB SYSTEM 3 PSZ NODE 187 SUPPLY PATH,SP-IC_PATROOM1_MULT5_FLR_2 SYS-3 FLR-3 SCH-H HPLCMT-NORTH ZN NECB SYSTEM 3 PSZ
   #Components on Supply Air Path,1
   Supply Air Path Component,1,AIRLOOPHVAC:ZONESPLITTER,AIR LOOP HVAC ZONE SPLITTER 10,SP-IC_PATROOM1_MULT5_FLR_2 SYS-3 FLR-3 SCH-H HPLCMT-NORTH ZN NECB SYSTEM 3 PSZ
     #Outlet Nodes on Supply Air Path Component,1
     Supply Air Path Component Nodes,1,AIRLOOPHVAC:ZONESPLITTER,AIR LOOP HVAC ZONE SPLITTER 10,NODE 187,NODE 189,SP-IC_PATROOM1_MULT5_FLR_2 SYS-3 FLR-3 SCH-H HPLCMT-NORTH ZN NECB SYSTEM 3 PSZ
! <#Nodes on Supply Air Path>,<Number of Nodes>
! <Supply Air Path Node>,<Node Type>,<Node Count>,<Node Name>,<AirLoopHVAC Name>
#Nodes on Supply Air Path,2
   Supply Air Path Node,Inlet Node,1,NODE 187,SP-IC_PATROOM1_MULT5_FLR_2 SYS-3 FLR-3 SCH-H HPLCMT-NORTH ZN NECB SYSTEM 3 PSZ
   Supply Air Path Node,Outlet Node,2,NODE 189,SP-IC_PATROOM1_MULT5_FLR_2 SYS-3 FLR-3 SCH-H HPLCMT-NORTH ZN NECB SYSTEM 3 PSZ
 Supply Air Path,19,SP-IC_PATROOM2_FLR_2 SYS-3 FLR-3 SCH-H HPLCMT-NORTH ZN NECB SYSTEM 3 PSZ NODE 200 SUPPLY PATH,SP-IC_PATROOM2_FLR_2 SYS-3 FLR-3 SCH-H HPLCMT-NORTH ZN NECB SYSTEM 3 PSZ
   #Components on Supply Air Path,1
   Supply Air Path Component,1,AIRLOOPHVAC:ZONESPLITTER,AIR LOOP HVAC ZONE SPLITTER 11,SP-IC_PATROOM2_FLR_2 SYS-3 FLR-3 SCH-H HPLCMT-NORTH ZN NECB SYSTEM 3 PSZ
     #Outlet Nodes on Supply Air Path Component,1
     Supply Air Path Component Nodes,1,AIRLOOPHVAC:ZONESPLITTER,AIR LOOP HVAC ZONE SPLITTER 11,NODE 200,NODE 202,SP-IC_PATROOM2_FLR_2 SYS-3 FLR-3 SCH-H HPLCMT-NORTH ZN NECB SYSTEM 3 PSZ
! <#Nodes on Supply Air Path>,<Number of Nodes>
! <Supply Air Path Node>,<Node Type>,<Node Count>,<Node Name>,<AirLoopHVAC Name>
#Nodes on Supply Air Path,2
   Supply Air Path Node,Inlet Node,1,NODE 200,SP-IC_PATROOM2_FLR_2 SYS-3 FLR-3 SCH-H HPLCMT-NORTH ZN NECB SYSTEM 3 PSZ
[...]
 Non-Parent Node Connection,NODE 493,COIL:COOLING:DX:SINGLESPEED,COIL COOLING DX SINGLE SPEED 33,Inlet,1
 Non-Parent Node Connection,NODE 492,COIL:COOLING:DX:SINGLESPEED,COIL COOLING DX SINGLE SPEED 33,Outlet,1
 Non-Parent Node Connection,NODE 467,COIL:COOLING:DX:SINGLESPEED,COIL COOLING DX SINGLE SPEED 31,Inlet,1
 Non-Parent Node Connection,NODE 466,COIL:COOLING:DX:SINGLESPEED,COIL COOLING DX SINGLE SPEED 31,Outlet,1
 Non-Parent Node Connection,NODE 636,COIL:COOLING:DX:SINGLESPEED,COIL COOLING DX SINGLE SPEED 44,Inlet,1
 Non-Parent Node Connection,NODE 635,COIL:COOLING:DX:SINGLESPEED,COIL COOLING DX SINGLE SPEED 44,Outlet,1
 Non-Parent Node Connection,NODE 701,COIL:COOLING:DX:SINGLESPEED,COIL COOLING DX SINGLE SPEED 49,Inlet,1
 Non-Parent Node Connection,NODE 700,COIL:COOLING:DX:SINGLESPEED,COIL COOLING DX SINGLE SPEED 49,Outlet,1
 Non-Parent Node Connection,NODE 220,COIL:COOLING:DX:SINGLESPEED,COIL COOLING DX SINGLE SPEED 12,Inlet,1
 Non-Parent Node Connection,NODE 219,COIL:COOLING:DX:SINGLESPEED,COIL COOLING DX SINGLE SPEED 12,Outlet,1
 Non-Parent Node Connection,NODE 246,COIL:COOLING:DX:SINGLESPEED,COIL COOLING DX SINGLE SPEED 14,Inlet,1
 Non-Parent Node Connection,NODE 245,COIL:COOLING:DX:SINGLESPEED,COIL COOLING DX SINGLE SPEED 14,Outlet,1
 Non-Parent Node Connection,NODE 233,COIL:COOLING:DX:SINGLESPEED,COIL COOLING DX SINGLE SPEED 13,Inlet,1
 Non-Parent Node Connection,NODE 232,COIL:COOLING:DX:SINGLESPEED,COIL COOLING DX SINGLE SPEED 13,Outlet,1
 Non-Parent Node Connection,NODE 311,COIL:COOLING:DX:SINGLESPEED,COIL COOLING DX SINGLE SPEED 19,Inlet,1
 Non-Parent Node Connection,NODE 310,COIL:COOLING:DX:SINGLESPEED,COIL COOLING DX SINGLE SPEED 19,Outlet,1
 Non-Parent Node Connection,NODE 285,COIL:COOLING:DX:SINGLESPEED,COIL COOLING DX SINGLE SPEED 17,Inlet,1
 Non-Parent Node Connection,NODE 284,COIL:COOLING:DX:SINGLESPEED,COIL COOLING DX SINGLE SPEED 17,Outlet,1
 Non-Parent Node Connection,NODE 428,COIL:COOLING:DX:SINGLESPEED,COIL COOLING DX SINGLE SPEED 28,Inlet,1
 Non-Parent Node Connection,NODE 427,COIL:COOLING:DX:SINGLESPEED,COIL COOLING DX SINGLE SPEED 28,Outlet,1
 Non-Parent Node Connection,NODE 597,COIL:COOLING:DX:SINGLESPEED,COIL COOLING DX SINGLE SPEED 41,Inlet,1
 Non-Parent Node Connection,NODE 596,COIL:COOLING:DX:SINGLESPEED,COIL COOLING DX SINGLE SPEED 41,Outlet,1
 Non-Parent Node Connection,NODE 441,COIL:COOLING:DX:SINGLESPEED,COIL COOLING DX SINGLE SPEED 29,Inlet,1
 Non-Parent Node Connection,NODE 440,COIL:COOLING:DX:SINGLESPEED,COIL COOLING DX SINGLE SPEED 29,Outlet,1
 Non-Parent Node Connection,NODE 610,COIL:COOLING:DX:SINGLESPEED,COIL COOLING DX SINGLE SPEED 42,Inlet,1
 Non-Parent Node Connection,NODE 609,COIL:COOLING:DX:SINGLESPEED,COIL COOLING DX SINGLE SPEED 42,Outlet,1
 Non-Parent Node Connection,NODE 402,COIL:COOLING:DX:SINGLESPEED,COIL COOLING DX SINGLE SPEED 26,Inlet,1
 Non-Parent Node Connection,NODE 401,COIL:COOLING:DX:SINGLESPEED,COIL COOLING DX SINGLE SPEED 26,Outlet,1
 Non-Parent Node Connection,NODE 571,COIL:COOLING:DX:SINGLESPEED,COIL COOLING DX SINGLE SPEED 39,Inlet,1
 Non-Parent Node Connection,NODE 570,COIL:COOLING:DX:SINGLESPEED,COIL COOLING DX SINGLE SPEED 39,Outlet,1
 Non-Parent Node Connection,NODE 363,COIL:COOLING:DX:SINGLESPEED,COIL COOLING DX SINGLE SPEED 23,Inlet,1
 Non-Parent Node Connection,NODE 362,COIL:COOLING:DX:SINGLESPEED,COIL COOLING DX SINGLE SPEED 23,Outlet,1
 Non-Parent Node Connection,NODE 532,COIL:COOLING:DX:SINGLESPEED,COIL COOLING DX SINGLE SPEED 36,Inlet,1
 Non-Parent Node Connection,NODE 531,COIL:COOLING:DX:SINGLESPEED,COIL COOLING DX SINGLE SPEED 36,Outlet,1
 Non-Parent Node Connection,NODE 376,COIL:COOLING:DX:SINGLESPEED,COIL COOLING DX SINGLE SPEED 24,Inlet,1
 Non-Parent Node Connection,NODE 375,COIL:COOLING:DX:SINGLESPEED,COIL COOLING DX SINGLE SPEED 24,Outlet,1
 Non-Parent Node Connection,NODE 545,COIL:COOLING:DX:SINGLESPEED,COIL COOLING DX SINGLE SPEED 37,Inlet,1
 Non-Parent Node Connection,NODE 544,COIL:COOLING:DX:SINGLESPEED,COIL COOLING DX SINGLE SPEED 37,Outlet,1
 Non-Parent Node Connection,NODE 454,COIL:COOLING:DX:SINGLESPEED,COIL COOLING DX SINGLE SPEED 30,Inlet,1
 Non-Parent Node Connection,NODE 453,COIL:COOLING:DX:SINGLESPEED,COIL COOLING DX SINGLE SPEED 30,Outlet,1
 Non-Parent Node Connection,NODE 623,COIL:COOLING:DX:SINGLESPEED,COIL COOLING DX SINGLE SPEED 43,Inlet,1
 Non-Parent Node Connection,NODE 622,COIL:COOLING:DX:SINGLESPEED,COIL COOLING DX SINGLE SPEED 43,Outlet,1
 Non-Parent Node Connection,NODE 415,COIL:COOLING:DX:SINGLESPEED,COIL COOLING DX SINGLE SPEED 27,Inlet,1
 Non-Parent Node Connection,NODE 414,COIL:COOLING:DX:SINGLESPEED,COIL COOLING DX SINGLE SPEED 27,Outlet,1
 Non-Parent Node Connection,NODE 584,COIL:COOLING:DX:SINGLESPEED,COIL COOLING DX SINGLE SPEED 40,Inlet,1
 Non-Parent Node Connection,NODE 583,COIL:COOLING:DX:SINGLESPEED,COIL COOLING DX SINGLE SPEED 40,Outlet,1
 Non-Parent Node Connection,NODE 389,COIL:COOLING:DX:SINGLESPEED,COIL COOLING DX SINGLE SPEED 25,Inlet,1
 Non-Parent Node Connection,NODE 388,COIL:COOLING:DX:SINGLESPEED,COIL COOLING DX SINGLE SPEED 25,Outlet,1
 Non-Parent Node Connection,NODE 558,COIL:COOLING:DX:SINGLESPEED,COIL COOLING DX SINGLE SPEED 38,Inlet,1
 Non-Parent Node Connection,NODE 557,COIL:COOLING:DX:SINGLESPEED,COIL COOLING DX SINGLE SPEED 38,Outlet,1
 Non-Parent Node Connection,NODE 480,COIL:COOLING:DX:SINGLESPEED,COIL COOLING DX SINGLE SPEED 32,Inlet,1
 Non-Parent Node Connection,NODE 479,COIL:COOLING:DX:SINGLESPEED,COIL COOLING DX SINGLE SPEED 32,Outlet,1
 Non-Parent Node Connection,NODE 649,COIL:COOLING:DX:SINGLESPEED,COIL COOLING DX SINGLE SPEED 45,Inlet,1
 Non-Parent Node Connection,NODE 648,COIL:COOLING:DX:SINGLESPEED,COIL COOLING DX SINGLE SPEED 45,Outlet,1
 Non-Parent Node Connection,NODE 77,COIL:HEATING:FUEL,COIL HEATING GAS 1,Inlet,1
 Non-Parent Node Connection,NODE 76,COIL:HEATING:FUEL,COIL HEATING GAS 1,Outlet,1
 Non-Parent Node Connection,NODE 76,COIL:HEATING:FUEL,COIL HEATING GAS 1,Sensor,1
 Non-Parent Node Connection,NODE 89,COIL:HEATING:FUEL,COIL HEATING GAS 2,Inlet,1
 Non-Parent Node Connection,NODE 88,COIL:HEATING:FUEL,COIL HEATING GAS 2,Outlet,1
 Non-Parent Node Connection,NODE 88,COIL:HEATING:FUEL,COIL HEATING GAS 2,Sensor,1
 Non-Parent Node Connection,NODE 180,COIL:HEATING:FUEL,COIL HEATING GAS 9,Inlet,1
 Non-Parent Node Connection,NODE 179,COIL:HEATING:FUEL,COIL HEATING GAS 9,Outlet,1
 Non-Parent Node Connection,NODE 179,COIL:HEATING:FUEL,COIL HEATING GAS 9,Sensor,1
 Non-Parent Node Connection,NODE 661,COIL:HEATING:FUEL,COIL HEATING GAS 46,Inlet,1
 Non-Parent Node Connection,NODE 660,COIL:HEATING:FUEL,COIL HEATING GAS 46,Outlet,1
 Non-Parent Node Connection,NODE 660,COIL:HEATING:FUEL,COIL HEATING GAS 46,Sensor,1
 Non-Parent Node Connection,NODE 336,COIL:HEATING:FUEL,COIL HEATING GAS 21,Inlet,1
 Non-Parent Node Connection,NODE 335,COIL:HEATING:FUEL,COIL HEATING GAS 21,Outlet,1
 Non-Parent Node Connection,NODE 335,COIL:HEATING:FUEL,COIL HEATING GAS 21,Sensor,1
 Non-Parent Node Connection,NODE 505,COIL:HEATING:FUEL,COIL HEATING GAS 34,Inlet,1
 Non-Parent Node Connection,NODE 504,COIL:HEATING:FUEL,COIL HEATING GAS 34,Outlet,1
 Non-Parent Node Connection,NODE 504,COIL:HEATING:FUEL,COIL HEATING GAS 34,Sensor,1
 Non-Parent Node Connection,NODE 349,COIL:HEATING:FUEL,COIL HEATING GAS 22,Inlet,1
 Non-Parent Node Connection,NODE 348,COIL:HEATING:FUEL,COIL HEATING GAS 22,Outlet,1
 Non-Parent Node Connection,NODE 348,COIL:HEATING:FUEL,COIL HEATING GAS 22,Sensor,1
 Non-Parent Node Connection,NODE 518,COIL:HEATING:FUEL,COIL HEATING GAS 35,Inlet,1
 Non-Parent Node Connection,NODE 517,COIL:HEATING:FUEL,COIL HEATING GAS 35,Outlet,1
 Non-Parent Node Connection,NODE 517,COIL:HEATING:FUEL,COIL HEATING GAS 35,Sensor,1
 Non-Parent Node Connection,NODE 687,COIL:HEATING:FUEL,COIL HEATING GAS 48,Inlet,1
 Non-Parent Node Connection,NODE 686,COIL:HEATING:FUEL,COIL HEATING GAS 48,Outlet,1
 Non-Parent Node Connection,NODE 686,COIL:HEATING:FUEL,COIL HEATING GAS 48,Sensor,1
 Non-Parent Node Connection,NODE 154,COIL:HEATING:FUEL,COIL HEATING GAS 7,Inlet,1
 Non-Parent Node Connection,NODE 153,COIL:HEATING:FUEL,COIL HEATING GAS 7,Outlet,1
 Non-Parent Node Connection,NODE 153,COIL:HEATING:FUEL,COIL HEATING GAS 7,Sensor,1
 Non-Parent Node Connection,NODE 128,COIL:HEATING:FUEL,COIL HEATING GAS 5,Inlet,1
 Non-Parent Node Connection,NODE 127,COIL:HEATING:FUEL,COIL HEATING GAS 5,Outlet,1
 Non-Parent Node Connection,NODE 127,COIL:HEATING:FUEL,COIL HEATING GAS 5,Sensor,1
 Non-Parent Node Connection,NODE 141,COIL:HEATING:FUEL,COIL HEATING GAS 6,Inlet,1
 Non-Parent Node Connection,NODE 140,COIL:HEATING:FUEL,COIL HEATING GAS 6,Outlet,1
 Non-Parent Node Connection,NODE 140,COIL:HEATING:FUEL,COIL HEATING GAS 6,Sensor,1
 Non-Parent Node Connection,NODE 167,COIL:HEATING:FUEL,COIL HEATING GAS 8,Inlet,1
 Non-Parent Node Connection,NODE 166,COIL:HEATING:FUEL,COIL HEATING GAS 8,Outlet,1
 Non-Parent Node Connection,NODE 166,COIL:HEATING:FUEL,COIL HEATING GAS 8,Sensor,1
 Non-Parent Node Connection,NODE 102,COIL:HEATING:FUEL,COIL HEATING GAS 3,Inlet,1
 Non-Parent Node Connection,NODE 101,COIL:HEATING:FUEL,COIL HEATING GAS 3,Outlet,1
 Non-Parent Node Connection,NODE 101,COIL:HEATING:FUEL,COIL HEATING GAS 3,Sensor,1
 Non-Parent Node Connection,NODE 115,COIL:HEATING:FUEL,COIL HEATING GAS 4,Inlet,1
 Non-Parent Node Connection,NODE 114,COIL:HEATING:FUEL,COIL HEATING GAS 4,Outlet,1
 Non-Parent Node Connection,NODE 114,COIL:HEATING:FUEL,COIL HEATING GAS 4,Sensor,1
 Non-Parent Node Connection,NODE 271,COIL:HEATING:FUEL,COIL HEATING GAS 16,Inlet,1
 Non-Parent Node Connection,NODE 270,COIL:HEATING:FUEL,COIL HEATING GAS 16,Outlet,1
 Non-Parent Node Connection,NODE 270,COIL:HEATING:FUEL,COIL HEATING GAS 16,Sensor,1
 Non-Parent Node Connection,NODE 297,COIL:HEATING:FUEL,COIL HEATING GAS 18,Inlet,1
 Non-Parent Node Connection,NODE 296,COIL:HEATING:FUEL,COIL HEATING GAS 18,Outlet,1
 Non-Parent Node Connection,NODE 296,COIL:HEATING:FUEL,COIL HEATING GAS 18,Sensor,1
 Non-Parent Node Connection,NODE 193,COIL:HEATING:FUEL,COIL HEATING GAS 10,Inlet,1
 Non-Parent Node Connection,NODE 192,COIL:HEATING:FUEL,COIL HEATING GAS 10,Outlet,1
 Non-Parent Node Connection,NODE 192,COIL:HEATING:FUEL,COIL HEATING GAS 10,Sensor,1
 Non-Parent Node Connection,NODE 206,COIL:HEATING:FUEL,COIL HEATING GAS 11,Inlet,1
 Non-Parent Node Connection,NODE 205,COIL:HEATING:FUEL,COIL HEATING GAS 11,Outlet,1
 Non-Parent Node Connection,NODE 205,COIL:HEATING:FUEL,COIL HEATING GAS 11,Sensor,1
 Non-Parent Node Connection,NODE 258,COIL:HEATING:FUEL,COIL HEATING GAS 15,Inlet,1
 Non-Parent Node Connection,NODE 257,COIL:HEATING:FUEL,COIL HEATING GAS 15,Outlet,1
 Non-Parent Node Connection,NODE 257,COIL:HEATING:FUEL,COIL HEATING GAS 15,Sensor,1
 Non-Parent Node Connection,NODE 674,COIL:HEATING:FUEL,COIL HEATING GAS 47,Inlet,1
 Non-Parent Node Connection,NODE 673,COIL:HEATING:FUEL,COIL HEATING GAS 47,Outlet,1
 Non-Parent Node Connection,NODE 673,COIL:HEATING:FUEL,COIL HEATING GAS 47,Sensor,1
 Non-Parent Node Connection,NODE 323,COIL:HEATING:FUEL,COIL HEATING GAS 20,Inlet,1
 Non-Parent Node Connection,NODE 322,COIL:HEATING:FUEL,COIL HEATING GAS 20,Outlet,1
 Non-Parent Node Connection,NODE 322,COIL:HEATING:FUEL,COIL HEATING GAS 20,Sensor,1
 Non-Parent Node Connection,NODE 492,COIL:HEATING:FUEL,COIL HEATING GAS 33,Inlet,1
 Non-Parent Node Connection,NODE 491,COIL:HEATING:FUEL,COIL HEATING GAS 33,Outlet,1
 Non-Parent Node Connection,NODE 491,COIL:HEATING:FUEL,COIL HEATING GAS 33,Sensor,1
 Non-Parent Node Connection,NODE 466,COIL:HEATING:FUEL,COIL HEATING GAS 31,Inlet,1
 Non-Parent Node Connection,NODE 465,COIL:HEATING:FUEL,COIL HEATING GAS 31,Outlet,1
 Non-Parent Node Connection,NODE 465,COIL:HEATING:FUEL,COIL HEATING GAS 31,Sensor,1
 Non-Parent Node Connection,NODE 635,COIL:HEATING:FUEL,COIL HEATING GAS 44,Inlet,1
 Non-Parent Node Connection,NODE 634,COIL:HEATING:FUEL,COIL HEATING GAS 44,Outlet,1
 Non-Parent Node Connection,NODE 634,COIL:HEATING:FUEL,COIL HEATING GAS 44,Sensor,1
 Non-Parent Node Connection,NODE 700,COIL:HEATING:FUEL,COIL HEATING GAS 49,Inlet,1
 Non-Parent Node Connection,NODE 699,COIL:HEATING:FUEL,COIL HEATING GAS 49,Outlet,1
 Non-Parent Node Connection,NODE 699,COIL:HEATING:FUEL,COIL HEATING GAS 49,Sensor,1
 Non-Parent Node Connection,NODE 219,COIL:HEATING:FUEL,COIL HEATING GAS 12,Inlet,1
 Non-Parent Node Connection,NODE 218,COIL:HEATING:FUEL,COIL HEATING GAS 12,Outlet,1
 Non-Parent Node Connection,NODE 218,COIL:HEATING:FUEL,COIL HEATING GAS 12,Sensor,1
 Non-Parent Node Connection,NODE 245,COIL:HEATING:FUEL,COIL HEATING GAS 14,Inlet,1
 Non-Parent Node Connection,NODE 244,COIL:HEATING:FUEL,COIL HEATING GAS 14,Outlet,1
 Non-Parent Node Connection,NODE 244,COIL:HEATING:FUEL,COIL HEATING GAS 14,Sensor,1
 Non-Parent Node Connection,NODE 232,COIL:HEATING:FUEL,COIL HEATING GAS 13,Inlet,1
 Non-Parent Node Connection,NODE 231,COIL:HEATING:FUEL,COIL HEATING GAS 13,Outlet,1
 Non-Parent Node Connection,NODE 231,COIL:HEATING:FUEL,COIL HEATING GAS 13,Sensor,1
 Non-Parent Node Connection,NODE 310,COIL:HEATING:FUEL,COIL HEATING GAS 19,Inlet,1
 Non-Parent Node Connection,NODE 309,COIL:HEATING:FUEL,COIL HEATING GAS 19,Outlet,1
 Non-Parent Node Connection,NODE 309,COIL:HEATING:FUEL,COIL HEATING GAS 19,Sensor,1
 Non-Parent Node Connection,NODE 284,COIL:HEATING:FUEL,COIL HEATING GAS 17,Inlet,1
 Non-Parent Node Connection,NODE 283,COIL:HEATING:FUEL,COIL HEATING GAS 17,Outlet,1
 Non-Parent Node Connection,NODE 283,COIL:HEATING:FUEL,COIL HEATING GAS 17,Sensor,1
 Non-Parent Node Connection,NODE 427,COIL:HEATING:FUEL,COIL HEATING GAS 28,Inlet,1
 Non-Parent Node Connection,NODE 426,COIL:HEATING:FUEL,COIL HEATING GAS 28,Outlet,1
 Non-Parent Node Connection,NODE 426,COIL:HEATING:FUEL,COIL HEATING GAS 28,Sensor,1
 Non-Parent Node Connection,NODE 596,COIL:HEATING:FUEL,COIL HEATING GAS 41,Inlet,1
 Non-Parent Node Connection,NODE 595,COIL:HEATING:FUEL,COIL HEATING GAS 41,Outlet,1
 Non-Parent Node Connection,NODE 595,COIL:HEATING:FUEL,COIL HEATING GAS 41,Sensor,1
 Non-Parent Node Connection,NODE 440,COIL:HEATING:FUEL,COIL HEATING GAS 29,Inlet,1
 Non-Parent Node Connection,NODE 439,COIL:HEATING:FUEL,COIL HEATING GAS 29,Outlet,1
 Non-Parent Node Connection,NODE 439,COIL:HEATING:FUEL,COIL HEATING GAS 29,Sensor,1
 Non-Parent Node Connection,NODE 609,COIL:HEATING:FUEL,COIL HEATING GAS 42,Inlet,1
 Non-Parent Node Connection,NODE 608,COIL:HEATING:FUEL,COIL HEATING GAS 42,Outlet,1
 Non-Parent Node Connection,NODE 608,COIL:HEATING:FUEL,COIL HEATING GAS 42,Sensor,1
 Non-Parent Node Connection,NODE 401,COIL:HEATING:FUEL,COIL HEATING GAS 26,Inlet,1
 Non-Parent Node Connection,NODE 400,COIL:HEATING:FUEL,COIL HEATING GAS 26,Outlet,1
 Non-Parent Node Connection,NODE 400,COIL:HEATING:FUEL,COIL HEATING GAS 26,Sensor,1
 Non-Parent Node Connection,NODE 570,COIL:HEATING:FUEL,COIL HEATING GAS 39,Inlet,1
 Non-Parent Node Connection,NODE 569,COIL:HEATING:FUEL,COIL HEATING GAS 39,Outlet,1
 Non-Parent Node Connection,NODE 569,COIL:HEATING:FUEL,COIL HEATING GAS 39,Sensor,1
 Non-Parent Node Connection,NODE 362,COIL:HEATING:FUEL,COIL HEATING GAS 23,Inlet,1
 Non-Parent Node Connection,NODE 361,COIL:HEATING:FUEL,COIL HEATING GAS 23,Outlet,1
 Non-Parent Node Connection,NODE 361,COIL:HEATING:FUEL,COIL HEATING GAS 23,Sensor,1
 Non-Parent Node Connection,NODE 531,COIL:HEATING:FUEL,COIL HEATING GAS 36,Inlet,1
 Non-Parent Node Connection,NODE 530,COIL:HEATING:FUEL,COIL HEATING GAS 36,Outlet,1
 Non-Parent Node Connection,NODE 530,COIL:HEATING:FUEL,COIL HEATING GAS 36,Sensor,1
 Non-Parent Node Connection,NODE 375,COIL:HEATING:FUEL,COIL HEATING GAS 24,Inlet,1
 Non-Parent Node Connection,NODE 374,COIL:HEATING:FUEL,COIL HEATING GAS 24,Outlet,1
 Non-Parent Node Connection,NODE 374,COIL:HEATING:FUEL,COIL HEATING GAS 24,Sensor,1
 Non-Parent Node Connection,NODE 544,COIL:HEATING:FUEL,COIL HEATING GAS 37,Inlet,1
 Non-Parent Node Connection,NODE 543,COIL:HEATING:FUEL,COIL HEATING GAS 37,Outlet,1
 Non-Parent Node Connection,NODE 543,COIL:HEATING:FUEL,COIL HEATING GAS 37,Sensor,1
 Non-Parent Node Connection,NODE 453,COIL:HEATING:FUEL,COIL HEATING GAS 30,Inlet,1
 Non-Parent Node Connection,NODE 452,COIL:HEATING:FUEL,COIL HEATING GAS 30,Outlet,1
 Non-Parent Node Connection,NODE 452,COIL:HEATING:FUEL,COIL HEATING GAS 30,Sensor,1
 Non-Parent Node Connection,NODE 622,COIL:HEATING:FUEL,COIL HEATING GAS 43,Inlet,1
 Non-Parent Node Connection,NODE 621,COIL:HEATING:FUEL,COIL HEATING GAS 43,Outlet,1
 Non-Parent Node Connection,NODE 621,COIL:HEATING:FUEL,COIL HEATING GAS 43,Sensor,1
 Non-Parent Node Connection,NODE 414,COIL:HEATING:FUEL,COIL HEATING GAS 27,Inlet,1
 Non-Parent Node Connection,NODE 413,COIL:HEATING:FUEL,COIL HEATING GAS 27,Outlet,1
 Non-Parent Node Connection,NODE 413,COIL:HEATING:FUEL,COIL HEATING GAS 27,Sensor,1
 Non-Parent Node Connection,NODE 583,COIL:HEATING:FUEL,COIL HEATING GAS 40,Inlet,1
 Non-Parent Node Connection,NODE 582,COIL:HEATING:FUEL,COIL HEATING GAS 40,Outlet,1
 Non-Parent Node Connection,NODE 582,COIL:HEATING:FUEL,COIL HEATING GAS 40,Sensor,1
 Non-Parent Node Connection,NODE 388,COIL:HEATING:FUEL,COIL HEATING GAS 25,Inlet,1
 Non-Parent Node Connection,NODE 387,COIL:HEATING:FUEL,COIL HEATING GAS 25,Outlet,1
 Non-Parent Node Connection,NODE 387,COIL:HEATING:FUEL,COIL HEATING GAS 25,Sensor,1
 Non-Parent Node Connection,NODE 557,COIL:HEATING:FUEL,COIL HEATING GAS 38,Inlet,1
 Non-Parent Node Connection,NODE 556,COIL:HEATING:FUEL,COIL HEATING GAS 38,Outlet,1
 Non-Parent Node Connection,NODE 556,COIL:HEATING:FUEL,COIL HEATING GAS 38,Sensor,1
 Non-Parent Node Connection,NODE 479,COIL:HEATING:FUEL,COIL HEATING GAS 32,Inlet,1
 Non-Parent Node Connection,NODE 478,COIL:HEATING:FUEL,COIL HEATING GAS 32,Outlet,1
 Non-Parent Node Connection,NODE 478,COIL:HEATING:FUEL,COIL HEATING GAS 32,Sensor,1
 Non-Parent Node Connection,NODE 648,COIL:HEATING:FUEL,COIL HEATING GAS 45,Inlet,1
 Non-Parent Node Connection,NODE 647,COIL:HEATING:FUEL,COIL HEATING GAS 45,Outlet,1
 Non-Parent Node Connection,NODE 647,COIL:HEATING:FUEL,COIL HEATING GAS 45,Sensor,1
 Non-Parent Node Connection,NODE 707,CHILLER:ELECTRIC:EIR,PRIMARY CHILLER WATERCOOLED SCROLL,Inlet,1
 Non-Parent Node Connection,NODE 712,CHILLER:ELECTRIC:EIR,PRIMARY CHILLER WATERCOOLED SCROLL,Outlet,1
 Non-Parent Node Connection,NODE 723,CHILLER:ELECTRIC:EIR,PRIMARY CHILLER WATERCOOLED SCROLL,Inlet,2
 Non-Parent Node Connection,NODE 729,CHILLER:ELECTRIC:EIR,PRIMARY CHILLER WATERCOOLED SCROLL,Outlet,2
 Non-Parent Node Connection,NODE 713,CHILLER:ELECTRIC:EIR,SECONDARY CHILLER WATERCOOLED SCROLL,Inlet,1
 Non-Parent Node Connection,NODE 714,CHILLER:ELECTRIC:EIR,SECONDARY CHILLER WATERCOOLED SCROLL,Outlet,1
 Non-Parent Node Connection,NODE 730,CHILLER:ELECTRIC:EIR,SECONDARY CHILLER WATERCOOLED SCROLL,Inlet,2
 Non-Parent Node Connection,NODE 731,CHILLER:ELECTRIC:EIR,SECONDARY CHILLER WATERCOOLED SCROLL,Outlet,2
 Non-Parent Node Connection,NODE 720,COOLINGTOWER:SINGLESPEED,COOLING TOWER SINGLE SPEED 1,Inlet,1
 Non-Parent Node Connection,NODE 725,COOLINGTOWER:SINGLESPEED,COOLING TOWER SINGLE SPEED 1,Outlet,1
 Non-Parent Node Connection,NODE 58,BOILER:HOTWATER,PRIMARY BOILER,Inlet,1
 Non-Parent Node Connection,NODE 63,BOILER:HOTWATER,PRIMARY BOILER,Outlet,1
 Non-Parent Node Connection,NODE 64,BOILER:HOTWATER,SECONDARY BOILER,Inlet,1
 Non-Parent Node Connection,NODE 65,BOILER:HOTWATER,SECONDARY BOILER,Outlet,1
 Non-Parent Node Connection,NODE 56,PUMP:VARIABLESPEED,PUMP VARIABLE SPEED 1,Inlet,1
 Non-Parent Node Connection,NODE 62,PUMP:VARIABLESPEED,PUMP VARIABLE SPEED 1,Outlet,1
 Non-Parent Node Connection,NODE 705,PUMP:CONSTANTSPEED,PUMP CONSTANT SPEED 1,Inlet,1
 Non-Parent Node Connection,NODE 711,PUMP:CONSTANTSPEED,PUMP CONSTANT SPEED 1,Outlet,1
 Non-Parent Node Connection,NODE 718,PUMP:CONSTANTSPEED,PUMP CONSTANT SPEED 2,Inlet,1
 Non-Parent Node Connection,NODE 724,PUMP:CONSTANTSPEED,PUMP CONSTANT SPEED 2,Outlet,1
 Non-Parent Node Connection,NODE 801,PUMP:CONSTANTSPEED,SERVICE WATER LOOP PUMP,Inlet,1
 Non-Parent Node Connection,NODE 807,PUMP:CONSTANTSPEED,SERVICE WATER LOOP PUMP,Outlet,1
