Program Version,EnergyPlus, Version 8.9.0-eba93e8e1b, YMD=2018.09.18 17:20
! This file shows details about the branches, nodes, and other
! elements of the flow connections.
! This file is intended for use in "debugging" potential problems
! that may also be detected by the program, but may be more easily
! identified by "eye".
! This file is also intended to support software which draws a
! schematic diagram of the HVAC system.
! ===============================================================
! #Nodes,<Number of Unique Nodes>
 #Nodes,388
! <Node>,<NodeNumber>,<Node Name>,<Node Fluid Type>,<# Times Node Referenced After Definition>
 Node,1,NODE 110,Air,4
 Node,2,NODE 162,Air,4
 Node,3,NODE 215,Air,4
 Node,4,NODE 48,Air,3
 Node,5,NODE 40,Air,3
 Node,6,NODE 47,Air,3
 Node,7,NODE 149,Air,4
 Node,8,NODE 123,Air,4
 Node,9,NODE 136,Air,4
 Node,10,NODE 233,Air,4
 Node,11,NODE 240,Air,4
 Node,12,NODE 247,Air,4
 Node,13,NODE 254,Air,4
 Node,14,NODE 261,Air,4
 Node,15,NODE 71,Air,3
 Node,16,NODE 74,Air,3
 Node,17,NODE 70,Air,3
 Node,18,NODE 89,Air,3
 Node,19,NODE 92,Air,3
 Node,20,NODE 88,Air,3
 Node,21,NODE 77,Air,3
 Node,22,NODE 80,Air,3
 Node,23,NODE 76,Air,3
 Node,24,NODE 95,Air,3
 Node,25,NODE 98,Air,3
 Node,26,NODE 94,Air,3
 Node,27,NODE 83,Air,3
 Node,28,NODE 86,Air,3
 Node,29,NODE 82,Air,3
 Node,30,NODE 101,Air,3
 Node,31,NODE 104,Air,3
 Node,32,NODE 100,Air,3
 Node,33,NODE 53,Air,3
 Node,34,NODE 56,Air,3
 Node,35,NODE 52,Air,3
 Node,36,NODE 59,Air,3
 Node,37,NODE 62,Air,3
 Node,38,NODE 58,Air,3
 Node,39,NODE 65,Air,3
 Node,40,NODE 68,Air,3
 Node,41,NODE 64,Air,3
 Node,42,NODE 175,Air,4
 Node,43,NODE 37,Air,10
 Node,44,NODE 38,Air,3
 Node,45,NODE 107,Air,10
 Node,46,NODE 108,Air,3
 Node,47,NODE 159,Air,10
 Node,48,NODE 160,Air,3
 Node,49,NODE 146,Air,10
 Node,50,NODE 147,Air,3
 Node,51,NODE 120,Air,10
 Node,52,NODE 121,Air,3
 Node,53,NODE 133,Air,10
 Node,54,NODE 134,Air,3
 Node,55,NODE 172,Air,10
 Node,56,NODE 173,Air,3
 Node,57,NODE 212,Air,12
 Node,58,NODE 213,Air,3
 Node,59,NODE 36,Air,3
 Node,60,NODE 46,Air,6
 Node,61,NODE 45,Air,6
 Node,62,NODE 44,Air,8
 Node,63,NODE 106,Air,3
 Node,64,NODE 115,Air,6
 Node,65,NODE 114,Air,6
 Node,66,NODE 113,Air,8
 Node,67,NODE 158,Air,3
 Node,68,NODE 167,Air,6
 Node,69,NODE 166,Air,6
 Node,70,NODE 165,Air,8
 Node,71,NODE 145,Air,3
 Node,72,NODE 154,Air,6
 Node,73,NODE 153,Air,6
 Node,74,NODE 152,Air,8
 Node,75,NODE 119,Air,3
 Node,76,NODE 128,Air,6
 Node,77,NODE 127,Air,6
 Node,78,NODE 126,Air,8
 Node,79,NODE 132,Air,3
 Node,80,NODE 141,Air,6
 Node,81,NODE 140,Air,6
 Node,82,NODE 139,Air,8
 Node,83,NODE 171,Air,3
 Node,84,NODE 180,Air,6
 Node,85,NODE 179,Air,6
 Node,86,NODE 178,Air,8
 Node,87,NODE 211,Air,2
 Node,88,NODE 224,Air,5
 Node,89,NODE 223,Air,5
 Node,90,NODE 222,Air,5
 Node,91,NODE 221,Air,9
 Node,92,NODE 184,Water,2
 Node,93,NODE 190,Water,1
 Node,94,NODE 186,Water,1
 Node,95,NODE 191,Water,1
 Node,96,NODE 192,Water,1
 Node,97,NODE 193,Water,1
 Node,98,NODE 194,Water,1
 Node,99,NODE 195,Water,1
 Node,100,NODE 196,Water,1
 Node,101,NODE 185,Water,4
 Node,102,NODE 187,Water,2
 Node,103,CHILLED WATER LOOP DEMAND INLET PIPE NODE,Water,1
 Node,104,NODE 189,Water,2
 Node,105,NODE 218,Water,1
 Node,106,CHILLED WATER LOOP DEMAND BYPASS PIPE INLET NODE,Water,1
 Node,107,CHILLED WATER LOOP DEMAND BYPASS PIPE OUTLET NODE,Water,1
 Node,108,CHILLED WATER LOOP DEMAND OUTLET PIPE NODE,Water,1
 Node,109,NODE 188,Water,2
 Node,110,NODE 197,Water,2
 Node,111,NODE 203,Water,1
 Node,112,NODE 199,Water,1
 Node,113,NODE 204,Water,1
 Node,114,NODE 205,Water,1
 Node,115,NODE 206,Water,1
 Node,116,NODE 207,Water,1
 Node,117,NODE 198,Water,4
 Node,118,NODE 200,Water,2
 Node,119,CONDENSER WATER LOOP DEMAND INLET PIPE NODE,Water,1
 Node,120,NODE 202,Water,1
 Node,121,NODE 208,Water,1
 Node,122,NODE 209,Water,1
 Node,123,NODE 210,Water,1
 Node,124,CONDENSER WATER LOOP DEMAND BYPASS PIPE INLET NODE,Water,1
 Node,125,CONDENSER WATER LOOP DEMAND BYPASS PIPE OUTLET NODE,Water,1
 Node,126,CONDENSER WATER LOOP DEMAND OUTLET PIPE NODE,Water,1
 Node,127,NODE 201,Water,2
 Node,128,NODE 23,Water,2
 Node,129,NODE 29,Water,1
 Node,130,NODE 25,Water,1
 Node,131,NODE 30,Water,1
 Node,132,NODE 31,Water,1
 Node,133,NODE 32,Water,1
 Node,134,NODE 33,Water,1
 Node,135,NODE 34,Water,1
 Node,136,NODE 35,Water,1
 Node,137,NODE 24,Water,4
 Node,138,NODE 26,Water,2
 Node,139,HOT WATER LOOP DEMAND INLET PIPE NODE,Water,1
 Node,140,NODE 28,Water,2
 Node,141,NODE 41,Water,1
 Node,142,NODE 49,Water,1
 Node,143,NODE 50,Water,1
 Node,144,NODE 54,Water,1
 Node,145,NODE 55,Water,1
 Node,146,NODE 60,Water,1
 Node,147,NODE 61,Water,1
 Node,148,NODE 66,Water,1
 Node,149,NODE 67,Water,1
 Node,150,NODE 72,Water,1
 Node,151,NODE 73,Water,1
 Node,152,NODE 78,Water,1
 Node,153,NODE 79,Water,1
 Node,154,NODE 84,Water,1
 Node,155,NODE 85,Water,1
 Node,156,NODE 90,Water,1
 Node,157,NODE 91,Water,1
 Node,158,NODE 96,Water,1
 Node,159,NODE 97,Water,1
 Node,160,NODE 102,Water,1
 Node,161,NODE 103,Water,1
 Node,162,NODE 117,Water,1
 Node,163,NODE 118,Water,1
 Node,164,NODE 130,Water,1
 Node,165,NODE 131,Water,1
 Node,166,NODE 143,Water,1
 Node,167,NODE 144,Water,1
 Node,168,NODE 156,Water,1
 Node,169,NODE 157,Water,1
 Node,170,NODE 169,Water,1
 Node,171,NODE 170,Water,1
 Node,172,NODE 182,Water,1
 Node,173,NODE 183,Water,1
 Node,174,NODE 216,Water,2
 Node,175,NODE 217,Water,1
 Node,176,NODE 225,Water,1
 Node,177,NODE 226,Water,1
 Node,178,NODE 229,Water,1
 Node,179,NODE 230,Water,1
 Node,180,NODE 231,Water,1
 Node,181,NODE 232,Water,1
 Node,182,NODE 236,Water,1
 Node,183,NODE 237,Water,1
 Node,184,NODE 238,Water,1
 Node,185,NODE 239,Water,1
 Node,186,NODE 243,Water,1
 Node,187,NODE 244,Water,1
 Node,188,NODE 245,Water,1
 Node,189,NODE 246,Water,1
 Node,190,NODE 250,Water,1
 Node,191,NODE 251,Water,1
 Node,192,NODE 252,Water,1
 Node,193,NODE 253,Water,1
 Node,194,NODE 257,Water,1
 Node,195,NODE 258,Water,1
 Node,196,NODE 259,Water,1
 Node,197,NODE 260,Water,1
 Node,198,NODE 264,Water,1
 Node,199,NODE 265,Water,1
 Node,200,HOT WATER LOOP DEMAND BYPASS PIPE INLET NODE,Water,1
 Node,201,HOT WATER LOOP DEMAND BYPASS PIPE OUTLET NODE,Water,1
 Node,202,HOT WATER LOOP DEMAND OUTLET PIPE NODE,Water,1
 Node,203,NODE 27,Water,2
 Node,204,NODE 266,Water,2
 Node,205,NODE 272,Water,1
 Node,206,NODE 268,Water,1
 Node,207,NODE 273,Water,1
 Node,208,NODE 274,Water,1
 Node,209,NODE 275,Water,1
 Node,210,NODE 277,Water,1
 Node,211,NODE 267,Water,4
 Node,212,NODE 269,Water,2
 Node,213,NODE 278,Water,1
 Node,214,NODE 271,Water,1
 Node,215,NODE 276,Water,1
 Node,216,NODE 280,Water,1
 Node,217,NODE 281,Water,1
 Node,218,NODE 282,Water,1
 Node,219,NODE 283,Water,1
 Node,220,NODE 284,Water,1
 Node,221,NODE 285,Water,1
 Node,222,NODE 286,Water,1
 Node,223,NODE 287,Water,1
 Node,224,NODE 288,Water,1
 Node,225,NODE 289,Water,1
 Node,226,NODE 290,Water,1
 Node,227,NODE 291,Water,1
 Node,228,NODE 292,Water,1
 Node,229,NODE 293,Water,1
 Node,230,NODE 294,Water,1
 Node,231,NODE 295,Water,1
 Node,232,NODE 296,Water,1
 Node,233,NODE 297,Water,1
 Node,234,NODE 298,Water,1
 Node,235,NODE 299,Water,1
 Node,236,NODE 300,Water,1
 Node,237,NODE 301,Water,1
 Node,238,NODE 302,Water,1
 Node,239,NODE 303,Water,1
 Node,240,NODE 304,Water,1
 Node,241,NODE 305,Water,1
 Node,242,NODE 306,Water,1
 Node,243,NODE 307,Water,1
 Node,244,NODE 308,Water,1
 Node,245,NODE 309,Water,1
 Node,246,NODE 310,Water,1
 Node,247,NODE 311,Water,1
 Node,248,NODE 312,Water,1
 Node,249,NODE 313,Water,1
 Node,250,NODE 314,Water,1
 Node,251,NODE 315,Water,1
 Node,252,NODE 316,Water,1
 Node,253,NODE 317,Water,1
 Node,254,MAIN SERVICE WATER LOOP DEMAND BYPASS PIPE INLET NODE,Water,1
 Node,255,MAIN SERVICE WATER LOOP DEMAND BYPASS PIPE OUTLET NODE,Water,1
 Node,256,NODE 279,Water,1
 Node,257,NODE 270,Water,2
 Node,258,NODE 11,Air,1
 Node,259,NODE 116,Air,1
 Node,260,NODE 15,Air,1
 Node,261,NODE 168,Air,1
 Node,262,NODE 20,Air,0
 Node,263,NODE 227,Air,1
 Node,264,NODE 1,Air,0
 Node,265,NODE 51,Air,1
 Node,266,NODE 14,Air,1
 Node,267,NODE 155,Air,1
 Node,268,NODE 12,Air,1
 Node,269,NODE 129,Air,1
 Node,270,NODE 13,Air,1
 Node,271,NODE 142,Air,1
 Node,272,NODE 18,Air,0
 Node,273,NODE 234,Air,1
 Node,274,NODE 22,Air,0
 Node,275,NODE 241,Air,1
 Node,276,NODE 17,Air,0
 Node,277,NODE 248,Air,1
 Node,278,NODE 21,Air,0
 Node,279,NODE 255,Air,1
 Node,280,NODE 19,Air,0
 Node,281,NODE 262,Air,1
 Node,282,NODE 5,Air,0
 Node,283,NODE 75,Air,1
 Node,284,NODE 8,Air,0
 Node,285,NODE 93,Air,1
 Node,286,NODE 6,Air,0
 Node,287,NODE 81,Air,1
 Node,288,NODE 9,Air,0
 Node,289,NODE 99,Air,1
 Node,290,NODE 7,Air,0
 Node,291,NODE 87,Air,1
 Node,292,NODE 10,Air,0
 Node,293,NODE 105,Air,1
 Node,294,NODE 2,Air,0
 Node,295,NODE 57,Air,1
 Node,296,NODE 3,Air,0
 Node,297,NODE 63,Air,1
 Node,298,NODE 4,Air,0
 Node,299,NODE 69,Air,1
 Node,300,NODE 16,Air,1
 Node,301,NODE 181,Air,1
 Node,302,NODE 39,Air,2
 Node,303,NODE 109,Air,2
 Node,304,NODE 161,Air,2
 Node,305,NODE 148,Air,2
 Node,306,NODE 122,Air,2
 Node,307,NODE 135,Air,2
 Node,308,NODE 174,Air,2
 Node,309,NODE 214,Air,2
 Node,310,SP-CORRIDOR_FLR_3 SYS-1 FLR-3 SCH-E HPLCMT-SOUTH ZN PTAC OA NODE,Air,1
 Node,311,SP-ROOM_1_FLR_3 SYS-1 FLR-3 SCH-F HPLCMT-WEST ZN PTAC OA NODE,Air,1
 Node,312,SP-ROOM_1_FLR_6 SYS-1 FLR-4 SCH-F HPLCMT-WEST ZN PTAC OA NODE,Air,1
 Node,313,SP-ROOM_2_FLR_3 SYS-1 FLR-3 SCH-F HPLCMT-WEST ZN PTAC OA NODE,Air,1
 Node,314,SP-ROOM_2_FLR_6 SYS-1 FLR-4 SCH-F HPLCMT-WEST ZN PTAC OA NODE,Air,1
 Node,315,SP-ROOM_3_MULT19_FLR_3 SYS-1 FLR-3 SCH-F HPLCMT-SOUTH ZN PTAC OA NODE,Air,1
 Node,316,SP-ROOM_3_MULT9_FLR_6 SYS-1 FLR-4 SCH-F HPLCMT-SOUTH ZN PTAC OA NODE,Air,1
 Node,317,SP-ROOM_4_MULT19_FLR_3 SYS-1 FLR-3 SCH-F HPLCMT-NORTH ZN PTAC OA NODE,Air,1
 Node,318,SP-ROOM_5_FLR_3 SYS-1 FLR-3 SCH-F HPLCMT-EAST ZN PTAC OA NODE,Air,1
 Node,319,SP-ROOM_6_FLR_3 SYS-1 FLR-3 SCH-F HPLCMT-EAST ZN PTAC OA NODE,Air,1
 Node,320,NODE 42,Air,2
 Node,321,NODE 111,Air,2
 Node,322,NODE 163,Air,2
 Node,323,NODE 150,Air,2
 Node,324,NODE 124,Air,2
 Node,325,NODE 137,Air,2
 Node,326,NODE 176,Air,2
 Node,327,NODE 219,Air,2
 Node,328,MODEL OUTDOOR AIR NODE,Air,0
 Node,329,NODE 228,Air,1
 Node,330,NODE 235,Air,1
 Node,331,NODE 242,Air,1
 Node,332,NODE 249,Air,1
 Node,333,NODE 256,Air,1
 Node,334,NODE 263,Air,1
 Node,335,AIR TERMINAL SINGLE DUCT VAV REHEAT 1 DAMPER OUTLET,Air,1
 Node,336,AIR TERMINAL SINGLE DUCT VAV REHEAT 2 DAMPER OUTLET,Air,1
 Node,337,AIR TERMINAL SINGLE DUCT VAV REHEAT 3 DAMPER OUTLET,Air,1
 Node,338,AIR TERMINAL SINGLE DUCT VAV REHEAT 4 DAMPER OUTLET,Air,1
 Node,339,AIR TERMINAL SINGLE DUCT VAV REHEAT 5 DAMPER OUTLET,Air,1
 Node,340,AIR TERMINAL SINGLE DUCT VAV REHEAT 6 DAMPER OUTLET,Air,1
 Node,341,SP-CORRIDOR_FLR_3 SYS-1 FLR-3 SCH-E HPLCMT-SOUTH ZN PTAC MIXED AIR NODE,Air,1
 Node,342,SP-CORRIDOR_FLR_3 SYS-1 FLR-3 SCH-E HPLCMT-SOUTH ZN PTAC RELIEF AIR NODE,Air,0
 Node,343,SP-ROOM_1_FLR_3 SYS-1 FLR-3 SCH-F HPLCMT-WEST ZN PTAC MIXED AIR NODE,Air,1
 Node,344,SP-ROOM_1_FLR_3 SYS-1 FLR-3 SCH-F HPLCMT-WEST ZN PTAC RELIEF AIR NODE,Air,0
 Node,345,SP-ROOM_1_FLR_6 SYS-1 FLR-4 SCH-F HPLCMT-WEST ZN PTAC MIXED AIR NODE,Air,1
 Node,346,SP-ROOM_1_FLR_6 SYS-1 FLR-4 SCH-F HPLCMT-WEST ZN PTAC RELIEF AIR NODE,Air,0
 Node,347,SP-ROOM_2_FLR_3 SYS-1 FLR-3 SCH-F HPLCMT-WEST ZN PTAC MIXED AIR NODE,Air,1
 Node,348,SP-ROOM_2_FLR_3 SYS-1 FLR-3 SCH-F HPLCMT-WEST ZN PTAC RELIEF AIR NODE,Air,0
 Node,349,SP-ROOM_2_FLR_6 SYS-1 FLR-4 SCH-F HPLCMT-WEST ZN PTAC MIXED AIR NODE,Air,1
 Node,350,SP-ROOM_2_FLR_6 SYS-1 FLR-4 SCH-F HPLCMT-WEST ZN PTAC RELIEF AIR NODE,Air,0
 Node,351,SP-ROOM_3_MULT19_FLR_3 SYS-1 FLR-3 SCH-F HPLCMT-SOUTH ZN PTAC MIXED AIR NODE,Air,1
 Node,352,SP-ROOM_3_MULT19_FLR_3 SYS-1 FLR-3 SCH-F HPLCMT-SOUTH ZN PTAC RELIEF AIR NODE,Air,0
 Node,353,SP-ROOM_3_MULT9_FLR_6 SYS-1 FLR-4 SCH-F HPLCMT-SOUTH ZN PTAC MIXED AIR NODE,Air,1
 Node,354,SP-ROOM_3_MULT9_FLR_6 SYS-1 FLR-4 SCH-F HPLCMT-SOUTH ZN PTAC RELIEF AIR NODE,Air,0
 Node,355,SP-ROOM_4_MULT19_FLR_3 SYS-1 FLR-3 SCH-F HPLCMT-NORTH ZN PTAC MIXED AIR NODE,Air,1
 Node,356,SP-ROOM_4_MULT19_FLR_3 SYS-1 FLR-3 SCH-F HPLCMT-NORTH ZN PTAC RELIEF AIR NODE,Air,0
 Node,357,SP-ROOM_5_FLR_3 SYS-1 FLR-3 SCH-F HPLCMT-EAST ZN PTAC MIXED AIR NODE,Air,1
 Node,358,SP-ROOM_5_FLR_3 SYS-1 FLR-3 SCH-F HPLCMT-EAST ZN PTAC RELIEF AIR NODE,Air,0
 Node,359,SP-ROOM_6_FLR_3 SYS-1 FLR-3 SCH-F HPLCMT-EAST ZN PTAC MIXED AIR NODE,Air,1
 Node,360,SP-ROOM_6_FLR_3 SYS-1 FLR-3 SCH-F HPLCMT-EAST ZN PTAC RELIEF AIR NODE,Air,0
 Node,361,NODE 43,Air,1
 Node,362,NODE 112,Air,1
 Node,363,NODE 164,Air,1
 Node,364,NODE 151,Air,1
 Node,365,NODE 125,Air,1
 Node,366,NODE 138,Air,1
 Node,367,NODE 177,Air,1
 Node,368,NODE 220,Air,1
 Node,369,SP-CORRIDOR_FLR_3 SYS-1 FLR-3 SCH-E HPLCMT-SOUTH ZN PTAC HEATING COIL OUTLET NODE,Air,1
 Node,370,SP-ROOM_1_FLR_3 SYS-1 FLR-3 SCH-F HPLCMT-WEST ZN PTAC HEATING COIL OUTLET NODE,Air,1
 Node,371,SP-ROOM_1_FLR_6 SYS-1 FLR-4 SCH-F HPLCMT-WEST ZN PTAC HEATING COIL OUTLET NODE,Air,1
 Node,372,SP-ROOM_2_FLR_3 SYS-1 FLR-3 SCH-F HPLCMT-WEST ZN PTAC HEATING COIL OUTLET NODE,Air,1
 Node,373,SP-ROOM_2_FLR_6 SYS-1 FLR-4 SCH-F HPLCMT-WEST ZN PTAC HEATING COIL OUTLET NODE,Air,1
 Node,374,SP-ROOM_3_MULT19_FLR_3 SYS-1 FLR-3 SCH-F HPLCMT-SOUTH ZN PTAC HEATING COIL OUTLET NODE,Air,1
 Node,375,SP-ROOM_3_MULT9_FLR_6 SYS-1 FLR-4 SCH-F HPLCMT-SOUTH ZN PTAC HEATING COIL OUTLET NODE,Air,1
 Node,376,SP-ROOM_4_MULT19_FLR_3 SYS-1 FLR-3 SCH-F HPLCMT-NORTH ZN PTAC HEATING COIL OUTLET NODE,Air,1
 Node,377,SP-ROOM_5_FLR_3 SYS-1 FLR-3 SCH-F HPLCMT-EAST ZN PTAC HEATING COIL OUTLET NODE,Air,1
 Node,378,SP-ROOM_6_FLR_3 SYS-1 FLR-3 SCH-F HPLCMT-EAST ZN PTAC HEATING COIL OUTLET NODE,Air,1
 Node,379,SP-CORRIDOR_FLR_3 SYS-1 FLR-3 SCH-E HPLCMT-SOUTH ZN PTAC COOLING COIL OUTLET NODE,Air,1
 Node,380,SP-ROOM_1_FLR_3 SYS-1 FLR-3 SCH-F HPLCMT-WEST ZN PTAC COOLING COIL OUTLET NODE,Air,1
 Node,381,SP-ROOM_1_FLR_6 SYS-1 FLR-4 SCH-F HPLCMT-WEST ZN PTAC COOLING COIL OUTLET NODE,Air,1
 Node,382,SP-ROOM_2_FLR_3 SYS-1 FLR-3 SCH-F HPLCMT-WEST ZN PTAC COOLING COIL OUTLET NODE,Air,1
 Node,383,SP-ROOM_2_FLR_6 SYS-1 FLR-4 SCH-F HPLCMT-WEST ZN PTAC COOLING COIL OUTLET NODE,Air,1
 Node,384,SP-ROOM_3_MULT19_FLR_3 SYS-1 FLR-3 SCH-F HPLCMT-SOUTH ZN PTAC COOLING COIL OUTLET NODE,Air,1
 Node,385,SP-ROOM_3_MULT9_FLR_6 SYS-1 FLR-4 SCH-F HPLCMT-SOUTH ZN PTAC COOLING COIL OUTLET NODE,Air,1
 Node,386,SP-ROOM_4_MULT19_FLR_3 SYS-1 FLR-3 SCH-F HPLCMT-NORTH ZN PTAC COOLING COIL OUTLET NODE,Air,1
 Node,387,SP-ROOM_5_FLR_3 SYS-1 FLR-3 SCH-F HPLCMT-EAST ZN PTAC COOLING COIL OUTLET NODE,Air,1
 Node,388,SP-ROOM_6_FLR_3 SYS-1 FLR-3 SCH-F HPLCMT-EAST ZN PTAC COOLING COIL OUTLET NODE,Air,1
! ===============================================================
! Suspicious nodes have 0 references.  It is normal for some nodes, however.
! Listing nodes with 0 references (culled from previous list):
! <Suspicious Node>,<NodeNumber>,<Node Name>,<Node Fluid Type>,<# Times Node Referenced After Definition>
 Suspicious Node,262,NODE 20,Air,0
 Suspicious Node,264,NODE 1,Air,0
 Suspicious Node,272,NODE 18,Air,0
 Suspicious Node,274,NODE 22,Air,0
 Suspicious Node,276,NODE 17,Air,0
 Suspicious Node,278,NODE 21,Air,0
 Suspicious Node,280,NODE 19,Air,0
 Suspicious Node,282,NODE 5,Air,0
 Suspicious Node,284,NODE 8,Air,0
 Suspicious Node,286,NODE 6,Air,0
 Suspicious Node,288,NODE 9,Air,0
 Suspicious Node,290,NODE 7,Air,0
 Suspicious Node,292,NODE 10,Air,0
 Suspicious Node,294,NODE 2,Air,0
 Suspicious Node,296,NODE 3,Air,0
 Suspicious Node,298,NODE 4,Air,0
 Suspicious Node,328,MODEL OUTDOOR AIR NODE,Air,0
 Suspicious Node,342,SP-CORRIDOR_FLR_3 SYS-1 FLR-3 SCH-E HPLCMT-SOUTH ZN PTAC RELIEF AIR NODE,Air,0
 Suspicious Node,344,SP-ROOM_1_FLR_3 SYS-1 FLR-3 SCH-F HPLCMT-WEST ZN PTAC RELIEF AIR NODE,Air,0
 Suspicious Node,346,SP-ROOM_1_FLR_6 SYS-1 FLR-4 SCH-F HPLCMT-WEST ZN PTAC RELIEF AIR NODE,Air,0
 Suspicious Node,348,SP-ROOM_2_FLR_3 SYS-1 FLR-3 SCH-F HPLCMT-WEST ZN PTAC RELIEF AIR NODE,Air,0
 Suspicious Node,350,SP-ROOM_2_FLR_6 SYS-1 FLR-4 SCH-F HPLCMT-WEST ZN PTAC RELIEF AIR NODE,Air,0
 Suspicious Node,352,SP-ROOM_3_MULT19_FLR_3 SYS-1 FLR-3 SCH-F HPLCMT-SOUTH ZN PTAC RELIEF AIR NODE,Air,0
 Suspicious Node,354,SP-ROOM_3_MULT9_FLR_6 SYS-1 FLR-4 SCH-F HPLCMT-SOUTH ZN PTAC RELIEF AIR NODE,Air,0
 Suspicious Node,356,SP-ROOM_4_MULT19_FLR_3 SYS-1 FLR-3 SCH-F HPLCMT-NORTH ZN PTAC RELIEF AIR NODE,Air,0
 Suspicious Node,358,SP-ROOM_5_FLR_3 SYS-1 FLR-3 SCH-F HPLCMT-EAST ZN PTAC RELIEF AIR NODE,Air,0
 Suspicious Node,360,SP-ROOM_6_FLR_3 SYS-1 FLR-3 SCH-F HPLCMT-EAST ZN PTAC RELIEF AIR NODE,Air,0
! ===============================================================
! <#Branch Lists>,<Number of Branch Lists>
 #Branch Lists,16
! <Branch List>,<Branch List Count>,<Branch List Name>,<Loop Name>,<Loop Type>,<Number of Branches>
! <Branch>,<Branch Count>,<Branch Name>,<Loop Name>,<Loop Type>,<Branch Inlet Node Name>,<Branch Outlet Node Name>
 Branch List,1,MAKE-UP AIR UNIT SUPPLY BRANCHES,MAKE-UP AIR UNIT,Air,1
   Branch,1,MAKE-UP AIR UNIT MAIN BRANCH,MAKE-UP AIR UNIT,Air,NODE 36,NODE 37
 Branch List,2,SP-BANQUET_FLR_6 SYS-3 FLR-4 SCH-B HPLCMT-NORTH ZN NECB SYSTEM 3 PSZ SUPPLY BRANCHES,SP-BANQUET_FLR_6 SYS-3 FLR-4 SCH-B HPLCMT-NORTH ZN NECB SYSTEM 3 PSZ,Air,1
   Branch,1,SP-BANQUET_FLR_6 SYS-3 FLR-4 SCH-B HPLCMT-NORTH ZN NECB SYSTEM 3 PSZ MAIN BRANCH,SP-BANQUET_FLR_6 SYS-3 FLR-4 SCH-B HPLCMT-NORTH ZN NECB SYSTEM 3 PSZ,Air,NODE 106,NODE 107
 Branch List,3,SP-BASEMENT SYS-4 FLR-1 SCH-E HPLCMT-NORTH ZN NECB SYSTEM 4 PSZ SUPPLY BRANCHES,SP-BASEMENT SYS-4 FLR-1 SCH-E HPLCMT-NORTH ZN NECB SYSTEM 4 PSZ,Air,1
   Branch,1,SP-BASEMENT SYS-4 FLR-1 SCH-E HPLCMT-NORTH ZN NECB SYSTEM 4 PSZ MAIN BRANCH,SP-BASEMENT SYS-4 FLR-1 SCH-E HPLCMT-NORTH ZN NECB SYSTEM 4 PSZ,Air,NODE 158,NODE 159
 Branch List,4,SP-CORRIDOR_FLR_6 SYS-3 FLR-4 SCH-E HPLCMT-SOUTH ZN NECB SYSTEM 3 PSZ SUPPLY BRANCHES,SP-CORRIDOR_FLR_6 SYS-3 FLR-4 SCH-E HPLCMT-SOUTH ZN NECB SYSTEM 3 PSZ,Air,1
   Branch,1,SP-CORRIDOR_FLR_6 SYS-3 FLR-4 SCH-E HPLCMT-SOUTH ZN NECB SYSTEM 3 PSZ MAIN BRANCH,SP-CORRIDOR_FLR_6 SYS-3 FLR-4 SCH-E HPLCMT-SOUTH ZN NECB SYSTEM 3 PSZ,Air,NODE 145,NODE 146
 Branch List,5,SP-DINING_FLR_6 SYS-3 FLR-4 SCH-B HPLCMT-NORTH ZN NECB SYSTEM 3 PSZ SUPPLY BRANCHES,SP-DINING_FLR_6 SYS-3 FLR-4 SCH-B HPLCMT-NORTH ZN NECB SYSTEM 3 PSZ,Air,1
   Branch,1,SP-DINING_FLR_6 SYS-3 FLR-4 SCH-B HPLCMT-NORTH ZN NECB SYSTEM 3 PSZ MAIN BRANCH,SP-DINING_FLR_6 SYS-3 FLR-4 SCH-B HPLCMT-NORTH ZN NECB SYSTEM 3 PSZ,Air,NODE 119,NODE 120
 Branch List,6,SP-KITCHEN_FLR_6 SYS-3 FLR-4 SCH-B HPLCMT-EAST ZN NECB SYSTEM 3 PSZ SUPPLY BRANCHES,SP-KITCHEN_FLR_6 SYS-3 FLR-4 SCH-B HPLCMT-EAST ZN NECB SYSTEM 3 PSZ,Air,1
   Branch,1,SP-KITCHEN_FLR_6 SYS-3 FLR-4 SCH-B HPLCMT-EAST ZN NECB SYSTEM 3 PSZ MAIN BRANCH,SP-KITCHEN_FLR_6 SYS-3 FLR-4 SCH-B HPLCMT-EAST ZN NECB SYSTEM 3 PSZ,Air,NODE 132,NODE 133
 Branch List,7,SP-STORAGE_FLR_1 SYS-4 FLR-2 SCH-E HPLCMT-NORTH ZN NECB SYSTEM 4 PSZ SUPPLY BRANCHES,SP-STORAGE_FLR_1 SYS-4 FLR-2 SCH-E HPLCMT-NORTH ZN NECB SYSTEM 4 PSZ,Air,1
   Branch,1,SP-STORAGE_FLR_1 SYS-4 FLR-2 SCH-E HPLCMT-NORTH ZN NECB SYSTEM 4 PSZ MAIN BRANCH,SP-STORAGE_FLR_1 SYS-4 FLR-2 SCH-E HPLCMT-NORTH ZN NECB SYSTEM 4 PSZ,Air,NODE 171,NODE 172
 Branch List,8,VAV WITH REHEAT SUPPLY BRANCHES,VAV WITH REHEAT,Air,1
   Branch,1,VAV WITH REHEAT MAIN BRANCH,VAV WITH REHEAT,Air,NODE 211,NODE 212
 Branch List,9,CHILLED WATER LOOP SUPPLY BRANCHES,CHILLED WATER LOOP,Plant Supply,5
   Branch,1,CHILLED WATER LOOP SUPPLY INLET BRANCH,CHILLED WATER LOOP,Plant Supply,NODE 184,NODE 190
   Branch,2,CHILLED WATER LOOP SUPPLY BRANCH 1,CHILLED WATER LOOP,Plant Supply,NODE 186,NODE 191
   Branch,3,CHILLED WATER LOOP SUPPLY BRANCH 2,CHILLED WATER LOOP,Plant Supply,NODE 192,NODE 193
   Branch,4,CHILLED WATER LOOP SUPPLY BRANCH 3,CHILLED WATER LOOP,Plant Supply,NODE 194,NODE 195
   Branch,5,CHILLED WATER LOOP SUPPLY OUTLET BRANCH,CHILLED WATER LOOP,Plant Supply,NODE 196,NODE 185
 Branch List,10,CHILLED WATER LOOP DEMAND BRANCHES,CHILLED WATER LOOP,Plant Demand,4
   Branch,1,CHILLED WATER LOOP DEMAND INLET BRANCH,CHILLED WATER LOOP,Plant Demand,NODE 187,CHILLED WATER LOOP DEMAND INLET PIPE NODE
   Branch,2,CHILLED WATER LOOP DEMAND BRANCH 1,CHILLED WATER LOOP,Plant Demand,NODE 189,NODE 218
   Branch,3,CHILLED WATER LOOP DEMAND BYPASS BRANCH,CHILLED WATER LOOP,Plant Demand,CHILLED WATER LOOP DEMAND BYPASS PIPE INLET NODE,CHILLED WATER LOOP DEMAND BYPASS PIPE OUTLET NODE
   Branch,4,CHILLED WATER LOOP DEMAND OUTLET BRANCH,CHILLED WATER LOOP,Plant Demand,CHILLED WATER LOOP DEMAND OUTLET PIPE NODE,NODE 188
 Branch List,11,CONDENSER WATER LOOP SUPPLY BRANCHES,CONDENSER WATER LOOP,Plant Supply,4
   Branch,1,CONDENSER WATER LOOP SUPPLY INLET BRANCH,CONDENSER WATER LOOP,Plant Supply,NODE 197,NODE 203
   Branch,2,CONDENSER WATER LOOP SUPPLY BRANCH 1,CONDENSER WATER LOOP,Plant Supply,NODE 199,NODE 204
   Branch,3,CONDENSER WATER LOOP SUPPLY BRANCH 2,CONDENSER WATER LOOP,Plant Supply,NODE 205,NODE 206
   Branch,4,CONDENSER WATER LOOP SUPPLY OUTLET BRANCH,CONDENSER WATER LOOP,Plant Supply,NODE 207,NODE 198
 Branch List,12,CONDENSER WATER LOOP DEMAND BRANCHES,CONDENSER WATER LOOP,Plant Demand,5
   Branch,1,CONDENSER WATER LOOP DEMAND INLET BRANCH,CONDENSER WATER LOOP,Plant Demand,NODE 200,CONDENSER WATER LOOP DEMAND INLET PIPE NODE
   Branch,2,CONDENSER WATER LOOP DEMAND BRANCH 1,CONDENSER WATER LOOP,Plant Demand,NODE 202,NODE 208
   Branch,3,CONDENSER WATER LOOP DEMAND BRANCH 2,CONDENSER WATER LOOP,Plant Demand,NODE 209,NODE 210
   Branch,4,CONDENSER WATER LOOP DEMAND BYPASS BRANCH,CONDENSER WATER LOOP,Plant Demand,CONDENSER WATER LOOP DEMAND BYPASS PIPE INLET NODE,CONDENSER WATER LOOP DEMAND BYPASS PIPE OUTLET NODE
   Branch,5,CONDENSER WATER LOOP DEMAND OUTLET BRANCH,CONDENSER WATER LOOP,Plant Demand,CONDENSER WATER LOOP DEMAND OUTLET PIPE NODE,NODE 201
 Branch List,13,HOT WATER LOOP SUPPLY BRANCHES,HOT WATER LOOP,Plant Supply,5
   Branch,1,HOT WATER LOOP SUPPLY INLET BRANCH,HOT WATER LOOP,Plant Supply,NODE 23,NODE 29
   Branch,2,HOT WATER LOOP SUPPLY BRANCH 1,HOT WATER LOOP,Plant Supply,NODE 25,NODE 30
   Branch,3,HOT WATER LOOP SUPPLY BRANCH 2,HOT WATER LOOP,Plant Supply,NODE 31,NODE 32
   Branch,4,HOT WATER LOOP SUPPLY BRANCH 3,HOT WATER LOOP,Plant Supply,NODE 33,NODE 34
   Branch,5,HOT WATER LOOP SUPPLY OUTLET BRANCH,HOT WATER LOOP,Plant Supply,NODE 35,NODE 24
 Branch List,14,HOT WATER LOOP DEMAND BRANCHES,HOT WATER LOOP,Plant Demand,33
   Branch,1,HOT WATER LOOP DEMAND INLET BRANCH,HOT WATER LOOP,Plant Demand,NODE 26,HOT WATER LOOP DEMAND INLET PIPE NODE
   Branch,2,HOT WATER LOOP DEMAND BRANCH 1,HOT WATER LOOP,Plant Demand,NODE 28,NODE 41
   Branch,3,HOT WATER LOOP DEMAND BRANCH 2,HOT WATER LOOP,Plant Demand,NODE 49,NODE 50
   Branch,4,HOT WATER LOOP DEMAND BRANCH 3,HOT WATER LOOP,Plant Demand,NODE 54,NODE 55
   Branch,5,HOT WATER LOOP DEMAND BRANCH 4,HOT WATER LOOP,Plant Demand,NODE 60,NODE 61
   Branch,6,HOT WATER LOOP DEMAND BRANCH 5,HOT WATER LOOP,Plant Demand,NODE 66,NODE 67
   Branch,7,HOT WATER LOOP DEMAND BRANCH 6,HOT WATER LOOP,Plant Demand,NODE 72,NODE 73
   Branch,8,HOT WATER LOOP DEMAND BRANCH 7,HOT WATER LOOP,Plant Demand,NODE 78,NODE 79
   Branch,9,HOT WATER LOOP DEMAND BRANCH 8,HOT WATER LOOP,Plant Demand,NODE 84,NODE 85
   Branch,10,HOT WATER LOOP DEMAND BRANCH 9,HOT WATER LOOP,Plant Demand,NODE 90,NODE 91
   Branch,11,HOT WATER LOOP DEMAND BRANCH 10,HOT WATER LOOP,Plant Demand,NODE 96,NODE 97
   Branch,12,HOT WATER LOOP DEMAND BRANCH 11,HOT WATER LOOP,Plant Demand,NODE 102,NODE 103
   Branch,13,HOT WATER LOOP DEMAND BRANCH 12,HOT WATER LOOP,Plant Demand,NODE 117,NODE 118
   Branch,14,HOT WATER LOOP DEMAND BRANCH 13,HOT WATER LOOP,Plant Demand,NODE 130,NODE 131
   Branch,15,HOT WATER LOOP DEMAND BRANCH 14,HOT WATER LOOP,Plant Demand,NODE 143,NODE 144
   Branch,16,HOT WATER LOOP DEMAND BRANCH 15,HOT WATER LOOP,Plant Demand,NODE 156,NODE 157
   Branch,17,HOT WATER LOOP DEMAND BRANCH 16,HOT WATER LOOP,Plant Demand,NODE 169,NODE 170
   Branch,18,HOT WATER LOOP DEMAND BRANCH 17,HOT WATER LOOP,Plant Demand,NODE 182,NODE 183
   Branch,19,HOT WATER LOOP DEMAND BRANCH 18,HOT WATER LOOP,Plant Demand,NODE 216,NODE 217
   Branch,20,HOT WATER LOOP DEMAND BRANCH 19,HOT WATER LOOP,Plant Demand,NODE 225,NODE 226
   Branch,21,HOT WATER LOOP DEMAND BRANCH 20,HOT WATER LOOP,Plant Demand,NODE 229,NODE 230
   Branch,22,HOT WATER LOOP DEMAND BRANCH 21,HOT WATER LOOP,Plant Demand,NODE 231,NODE 232
   Branch,23,HOT WATER LOOP DEMAND BRANCH 22,HOT WATER LOOP,Plant Demand,NODE 236,NODE 237
   Branch,24,HOT WATER LOOP DEMAND BRANCH 23,HOT WATER LOOP,Plant Demand,NODE 238,NODE 239
   Branch,25,HOT WATER LOOP DEMAND BRANCH 24,HOT WATER LOOP,Plant Demand,NODE 243,NODE 244
   Branch,26,HOT WATER LOOP DEMAND BRANCH 25,HOT WATER LOOP,Plant Demand,NODE 245,NODE 246
   Branch,27,HOT WATER LOOP DEMAND BRANCH 26,HOT WATER LOOP,Plant Demand,NODE 250,NODE 251
   Branch,28,HOT WATER LOOP DEMAND BRANCH 27,HOT WATER LOOP,Plant Demand,NODE 252,NODE 253
   Branch,29,HOT WATER LOOP DEMAND BRANCH 28,HOT WATER LOOP,Plant Demand,NODE 257,NODE 258
   Branch,30,HOT WATER LOOP DEMAND BRANCH 29,HOT WATER LOOP,Plant Demand,NODE 259,NODE 260
   Branch,31,HOT WATER LOOP DEMAND BRANCH 30,HOT WATER LOOP,Plant Demand,NODE 264,NODE 265
   Branch,32,HOT WATER LOOP DEMAND BYPASS BRANCH,HOT WATER LOOP,Plant Demand,HOT WATER LOOP DEMAND BYPASS PIPE INLET NODE,HOT WATER LOOP DEMAND BYPASS PIPE OUTLET NODE
   Branch,33,HOT WATER LOOP DEMAND OUTLET BRANCH,HOT WATER LOOP,Plant Demand,HOT WATER LOOP DEMAND OUTLET PIPE NODE,NODE 27
 Branch List,15,MAIN SERVICE WATER LOOP SUPPLY BRANCHES,MAIN SERVICE WATER LOOP,Plant Supply,4
   Branch,1,MAIN SERVICE WATER LOOP SUPPLY INLET BRANCH,MAIN SERVICE WATER LOOP,Plant Supply,NODE 266,NODE 272
   Branch,2,MAIN SERVICE WATER LOOP SUPPLY BRANCH 1,MAIN SERVICE WATER LOOP,Plant Supply,NODE 268,NODE 273
   Branch,3,MAIN SERVICE WATER LOOP SUPPLY BRANCH 2,MAIN SERVICE WATER LOOP,Plant Supply,NODE 274,NODE 275
   Branch,4,MAIN SERVICE WATER LOOP SUPPLY OUTLET BRANCH,MAIN SERVICE WATER LOOP,Plant Supply,NODE 277,NODE 267
 Branch List,16,MAIN SERVICE WATER LOOP DEMAND BRANCHES,MAIN SERVICE WATER LOOP,Plant Demand,23
   Branch,1,MAIN SERVICE WATER LOOP DEMAND INLET BRANCH,MAIN SERVICE WATER LOOP,Plant Demand,NODE 269,NODE 278
   Branch,2,MAIN SERVICE WATER LOOP DEMAND BRANCH 1,MAIN SERVICE WATER LOOP,Plant Demand,NODE 271,NODE 276
   Branch,3,MAIN SERVICE WATER LOOP DEMAND BRANCH 2,MAIN SERVICE WATER LOOP,Plant Demand,NODE 280,NODE 281
   Branch,4,MAIN SERVICE WATER LOOP DEMAND BRANCH 3,MAIN SERVICE WATER LOOP,Plant Demand,NODE 282,NODE 283
   Branch,5,MAIN SERVICE WATER LOOP DEMAND BRANCH 4,MAIN SERVICE WATER LOOP,Plant Demand,NODE 284,NODE 285
   Branch,6,MAIN SERVICE WATER LOOP DEMAND BRANCH 5,MAIN SERVICE WATER LOOP,Plant Demand,NODE 286,NODE 287
   Branch,7,MAIN SERVICE WATER LOOP DEMAND BRANCH 6,MAIN SERVICE WATER LOOP,Plant Demand,NODE 288,NODE 289
   Branch,8,MAIN SERVICE WATER LOOP DEMAND BRANCH 7,MAIN SERVICE WATER LOOP,Plant Demand,NODE 290,NODE 291
   Branch,9,MAIN SERVICE WATER LOOP DEMAND BRANCH 8,MAIN SERVICE WATER LOOP,Plant Demand,NODE 292,NODE 293
   Branch,10,MAIN SERVICE WATER LOOP DEMAND BRANCH 9,MAIN SERVICE WATER LOOP,Plant Demand,NODE 294,NODE 295
   Branch,11,MAIN SERVICE WATER LOOP DEMAND BRANCH 10,MAIN SERVICE WATER LOOP,Plant Demand,NODE 296,NODE 297
   Branch,12,MAIN SERVICE WATER LOOP DEMAND BRANCH 11,MAIN SERVICE WATER LOOP,Plant Demand,NODE 298,NODE 299
   Branch,13,MAIN SERVICE WATER LOOP DEMAND BRANCH 12,MAIN SERVICE WATER LOOP,Plant Demand,NODE 300,NODE 301
   Branch,14,MAIN SERVICE WATER LOOP DEMAND BRANCH 13,MAIN SERVICE WATER LOOP,Plant Demand,NODE 302,NODE 303
   Branch,15,MAIN SERVICE WATER LOOP DEMAND BRANCH 14,MAIN SERVICE WATER LOOP,Plant Demand,NODE 304,NODE 305
   Branch,16,MAIN SERVICE WATER LOOP DEMAND BRANCH 15,MAIN SERVICE WATER LOOP,Plant Demand,NODE 306,NODE 307
   Branch,17,MAIN SERVICE WATER LOOP DEMAND BRANCH 16,MAIN SERVICE WATER LOOP,Plant Demand,NODE 308,NODE 309
   Branch,18,MAIN SERVICE WATER LOOP DEMAND BRANCH 17,MAIN SERVICE WATER LOOP,Plant Demand,NODE 310,NODE 311
   Branch,19,MAIN SERVICE WATER LOOP DEMAND BRANCH 18,MAIN SERVICE WATER LOOP,Plant Demand,NODE 312,NODE 313
   Branch,20,MAIN SERVICE WATER LOOP DEMAND BRANCH 19,MAIN SERVICE WATER LOOP,Plant Demand,NODE 314,NODE 315
   Branch,21,MAIN SERVICE WATER LOOP DEMAND BRANCH 20,MAIN SERVICE WATER LOOP,Plant Demand,NODE 316,NODE 317
   Branch,22,MAIN SERVICE WATER LOOP DEMAND BYPASS BRANCH,MAIN SERVICE WATER LOOP,Plant Demand,MAIN SERVICE WATER LOOP DEMAND BYPASS PIPE INLET NODE,MAIN SERVICE WATER LOOP DEMAND BYPASS PIPE OUTLET NODE
   Branch,23,MAIN SERVICE WATER LOOP DEMAND OUTLET BRANCH,MAIN SERVICE WATER LOOP,Plant Demand,NODE 279,NODE 270
! ===============================================================
! <#Supply Air Paths>,<Number of Supply Air Paths>
 #Supply Air Paths,8
! <Supply Air Path>,<Supply Air Path Count>,<Supply Air Path Name>,<AirLoopHVAC Name>
! <#Components on Supply Air Path>,<Number of Components>
! <Supply Air Path Component>,<Component Count>,<Component Type>,<Component Name>,<AirLoopHVAC Name>
! <#Outlet Nodes on Supply Air Path Component>,<Number of Nodes>
! <Supply Air Path Component Nodes>,<Node Count>,<Component Type>,<Component Name>,<Inlet Node Name>,<Outlet Node Name>,<AirLoopHVAC Name>
 Supply Air Path,1,MAKE-UP AIR UNIT NODE 38 SUPPLY PATH,MAKE-UP AIR UNIT
   #Components on Supply Air Path,1
   Supply Air Path Component,1,AIRLOOPHVAC:ZONESPLITTER,AIR LOOP HVAC ZONE SPLITTER 1,MAKE-UP AIR UNIT
     #Outlet Nodes on Supply Air Path Component,10
     Supply Air Path Component Nodes,1,AIRLOOPHVAC:ZONESPLITTER,AIR LOOP HVAC ZONE SPLITTER 1,NODE 38,NODE 40,MAKE-UP AIR UNIT
     Supply Air Path Component Nodes,2,AIRLOOPHVAC:ZONESPLITTER,AIR LOOP HVAC ZONE SPLITTER 1,NODE 38,NODE 56,MAKE-UP AIR UNIT
     Supply Air Path Component Nodes,3,AIRLOOPHVAC:ZONESPLITTER,AIR LOOP HVAC ZONE SPLITTER 1,NODE 38,NODE 62,MAKE-UP AIR UNIT
     Supply Air Path Component Nodes,4,AIRLOOPHVAC:ZONESPLITTER,AIR LOOP HVAC ZONE SPLITTER 1,NODE 38,NODE 68,MAKE-UP AIR UNIT
     Supply Air Path Component Nodes,5,AIRLOOPHVAC:ZONESPLITTER,AIR LOOP HVAC ZONE SPLITTER 1,NODE 38,NODE 74,MAKE-UP AIR UNIT
     Supply Air Path Component Nodes,6,AIRLOOPHVAC:ZONESPLITTER,AIR LOOP HVAC ZONE SPLITTER 1,NODE 38,NODE 80,MAKE-UP AIR UNIT
     Supply Air Path Component Nodes,7,AIRLOOPHVAC:ZONESPLITTER,AIR LOOP HVAC ZONE SPLITTER 1,NODE 38,NODE 86,MAKE-UP AIR UNIT
     Supply Air Path Component Nodes,8,AIRLOOPHVAC:ZONESPLITTER,AIR LOOP HVAC ZONE SPLITTER 1,NODE 38,NODE 92,MAKE-UP AIR UNIT
     Supply Air Path Component Nodes,9,AIRLOOPHVAC:ZONESPLITTER,AIR LOOP HVAC ZONE SPLITTER 1,NODE 38,NODE 98,MAKE-UP AIR UNIT
     Supply Air Path Component Nodes,10,AIRLOOPHVAC:ZONESPLITTER,AIR LOOP HVAC ZONE SPLITTER 1,NODE 38,NODE 104,MAKE-UP AIR UNIT
! <#Nodes on Supply Air Path>,<Number of Nodes>
! <Supply Air Path Node>,<Node Type>,<Node Count>,<Node Name>,<AirLoopHVAC Name>
#Nodes on Supply Air Path,11
   Supply Air Path Node,Inlet Node,1,NODE 38,MAKE-UP AIR UNIT
   Supply Air Path Node,Outlet Node,2,NODE 40,MAKE-UP AIR UNIT
   Supply Air Path Node,Outlet Node,3,NODE 56,MAKE-UP AIR UNIT
   Supply Air Path Node,Outlet Node,4,NODE 62,MAKE-UP AIR UNIT
   Supply Air Path Node,Outlet Node,5,NODE 68,MAKE-UP AIR UNIT
   Supply Air Path Node,Outlet Node,6,NODE 74,MAKE-UP AIR UNIT
   Supply Air Path Node,Outlet Node,7,NODE 80,MAKE-UP AIR UNIT
   Supply Air Path Node,Outlet Node,8,NODE 86,MAKE-UP AIR UNIT
   Supply Air Path Node,Outlet Node,9,NODE 92,MAKE-UP AIR UNIT
   Supply Air Path Node,Outlet Node,10,NODE 98,MAKE-UP AIR UNIT
   Supply Air Path Node,Outlet Node,11,NODE 104,MAKE-UP AIR UNIT
 Supply Air Path,2,SP-BANQUET_FLR_6 SYS-3 FLR-4 SCH-B HPLCMT-NORTH ZN NECB SYSTEM 3 PSZ NODE 108 SUPPLY PATH,SP-BANQUET_FLR_6 SYS-3 FLR-4 SCH-B HPLCMT-NORTH ZN NECB SYSTEM 3 PSZ
   #Components on Supply Air Path,1
   Supply Air Path Component,1,AIRLOOPHVAC:ZONESPLITTER,AIR LOOP HVAC ZONE SPLITTER 2,SP-BANQUET_FLR_6 SYS-3 FLR-4 SCH-B HPLCMT-NORTH ZN NECB SYSTEM 3 PSZ
     #Outlet Nodes on Supply Air Path Component,1
     Supply Air Path Component Nodes,1,AIRLOOPHVAC:ZONESPLITTER,AIR LOOP HVAC ZONE SPLITTER 2,NODE 108,NODE 110,SP-BANQUET_FLR_6 SYS-3 FLR-4 SCH-B HPLCMT-NORTH ZN NECB SYSTEM 3 PSZ
! <#Nodes on Supply Air Path>,<Number of Nodes>
! <Supply Air Path Node>,<Node Type>,<Node Count>,<Node Name>,<AirLoopHVAC Name>
#Nodes on Supply Air Path,2
   Supply Air Path Node,Inlet Node,1,NODE 108,SP-BANQUET_FLR_6 SYS-3 FLR-4 SCH-B HPLCMT-NORTH ZN NECB SYSTEM 3 PSZ
   Supply Air Path Node,Outlet Node,2,NODE 110,SP-BANQUET_FLR_6 SYS-3 FLR-4 SCH-B HPLCMT-NORTH ZN NECB SYSTEM 3 PSZ
 Supply Air Path,3,SP-BASEMENT SYS-4 FLR-1 SCH-E HPLCMT-NORTH ZN NECB SYSTEM 4 PSZ NODE 160 SUPPLY PATH,SP-BASEMENT SYS-4 FLR-1 SCH-E HPLCMT-NORTH ZN NECB SYSTEM 4 PSZ
   #Components on Supply Air Path,1
   Supply Air Path Component,1,AIRLOOPHVAC:ZONESPLITTER,AIR LOOP HVAC ZONE SPLITTER 6,SP-BASEMENT SYS-4 FLR-1 SCH-E HPLCMT-NORTH ZN NECB SYSTEM 4 PSZ
     #Outlet Nodes on Supply Air Path Component,1
     Supply Air Path Component Nodes,1,AIRLOOPHVAC:ZONESPLITTER,AIR LOOP HVAC ZONE SPLITTER 6,NODE 160,NODE 162,SP-BASEMENT SYS-4 FLR-1 SCH-E HPLCMT-NORTH ZN NECB SYSTEM 4 PSZ
! <#Nodes on Supply Air Path>,<Number of Nodes>
! <Supply Air Path Node>,<Node Type>,<Node Count>,<Node Name>,<AirLoopHVAC Name>
#Nodes on Supply Air Path,2
   Supply Air Path Node,Inlet Node,1,NODE 160,SP-BASEMENT SYS-4 FLR-1 SCH-E HPLCMT-NORTH ZN NECB SYSTEM 4 PSZ
   Supply Air Path Node,Outlet Node,2,NODE 162,SP-BASEMENT SYS-4 FLR-1 SCH-E HPLCMT-NORTH ZN NECB SYSTEM 4 PSZ
 Supply Air Path,4,SP-CORRIDOR_FLR_6 SYS-3 FLR-4 SCH-E HPLCMT-SOUTH ZN NECB SYSTEM 3 PSZ NODE 147 SUPPLY PATH,SP-CORRIDOR_FLR_6 SYS-3 FLR-4 SCH-E HPLCMT-SOUTH ZN NECB SYSTEM 3 PSZ
   #Components on Supply Air Path,1
   Supply Air Path Component,1,AIRLOOPHVAC:ZONESPLITTER,AIR LOOP HVAC ZONE SPLITTER 5,SP-CORRIDOR_FLR_6 SYS-3 FLR-4 SCH-E HPLCMT-SOUTH ZN NECB SYSTEM 3 PSZ
     #Outlet Nodes on Supply Air Path Component,1
     Supply Air Path Component Nodes,1,AIRLOOPHVAC:ZONESPLITTER,AIR LOOP HVAC ZONE SPLITTER 5,NODE 147,NODE 149,SP-CORRIDOR_FLR_6 SYS-3 FLR-4 SCH-E HPLCMT-SOUTH ZN NECB SYSTEM 3 PSZ
! <#Nodes on Supply Air Path>,<Number of Nodes>
! <Supply Air Path Node>,<Node Type>,<Node Count>,<Node Name>,<AirLoopHVAC Name>
#Nodes on Supply Air Path,2
   Supply Air Path Node,Inlet Node,1,NODE 147,SP-CORRIDOR_FLR_6 SYS-3 FLR-4 SCH-E HPLCMT-SOUTH ZN NECB SYSTEM 3 PSZ
   Supply Air Path Node,Outlet Node,2,NODE 149,SP-CORRIDOR_FLR_6 SYS-3 FLR-4 SCH-E HPLCMT-SOUTH ZN NECB SYSTEM 3 PSZ
 Supply Air Path,5,SP-DINING_FLR_6 SYS-3 FLR-4 SCH-B HPLCMT-NORTH ZN NECB SYSTEM 3 PSZ NODE 121 SUPPLY PATH,SP-DINING_FLR_6 SYS-3 FLR-4 SCH-B HPLCMT-NORTH ZN NECB SYSTEM 3 PSZ
   #Components on Supply Air Path,1
   Supply Air Path Component,1,AIRLOOPHVAC:ZONESPLITTER,AIR LOOP HVAC ZONE SPLITTER 3,SP-DINING_FLR_6 SYS-3 FLR-4 SCH-B HPLCMT-NORTH ZN NECB SYSTEM 3 PSZ
     #Outlet Nodes on Supply Air Path Component,1
     Supply Air Path Component Nodes,1,AIRLOOPHVAC:ZONESPLITTER,AIR LOOP HVAC ZONE SPLITTER 3,NODE 121,NODE 123,SP-DINING_FLR_6 SYS-3 FLR-4 SCH-B HPLCMT-NORTH ZN NECB SYSTEM 3 PSZ
! <#Nodes on Supply Air Path>,<Number of Nodes>
! <Supply Air Path Node>,<Node Type>,<Node Count>,<Node Name>,<AirLoopHVAC Name>
#Nodes on Supply Air Path,2
   Supply Air Path Node,Inlet Node,1,NODE 121,SP-DINING_FLR_6 SYS-3 FLR-4 SCH-B HPLCMT-NORTH ZN NECB SYSTEM 3 PSZ
   Supply Air Path Node,Outlet Node,2,NODE 123,SP-DINING_FLR_6 SYS-3 FLR-4 SCH-B HPLCMT-NORTH ZN NECB SYSTEM 3 PSZ
 Supply Air Path,6,SP-KITCHEN_FLR_6 SYS-3 FLR-4 SCH-B HPLCMT-EAST ZN NECB SYSTEM 3 PSZ NODE 134 SUPPLY PATH,SP-KITCHEN_FLR_6 SYS-3 FLR-4 SCH-B HPLCMT-EAST ZN NECB SYSTEM 3 PSZ
   #Components on Supply Air Path,1
   Supply Air Path Component,1,AIRLOOPHVAC:ZONESPLITTER,AIR LOOP HVAC ZONE SPLITTER 4,SP-KITCHEN_FLR_6 SYS-3 FLR-4 SCH-B HPLCMT-EAST ZN NECB SYSTEM 3 PSZ
     #Outlet Nodes on Supply Air Path Component,1
     Supply Air Path Component Nodes,1,AIRLOOPHVAC:ZONESPLITTER,AIR LOOP HVAC ZONE SPLITTER 4,NODE 134,NODE 136,SP-KITCHEN_FLR_6 SYS-3 FLR-4 SCH-B HPLCMT-EAST ZN NECB SYSTEM 3 PSZ
! <#Nodes on Supply Air Path>,<Number of Nodes>
! <Supply Air Path Node>,<Node Type>,<Node Count>,<Node Name>,<AirLoopHVAC Name>
#Nodes on Supply Air Path,2
   Supply Air Path Node,Inlet Node,1,NODE 134,SP-KITCHEN_FLR_6 SYS-3 FLR-4 SCH-B HPLCMT-EAST ZN NECB SYSTEM 3 PSZ
   Supply Air Path Node,Outlet Node,2,NODE 136,SP-KITCHEN_FLR_6 SYS-3 FLR-4 SCH-B HPLCMT-EAST ZN NECB SYSTEM 3 PSZ
 Supply Air Path,7,SP-STORAGE_FLR_1 SYS-4 FLR-2 SCH-E HPLCMT-NORTH ZN NECB SYSTEM 4 PSZ NODE 173 SUPPLY PATH,SP-STORAGE_FLR_1 SYS-4 FLR-2 SCH-E HPLCMT-NORTH ZN NECB SYSTEM 4 PSZ
   #Components on Supply Air Path,1
   Supply Air Path Component,1,AIRLOOPHVAC:ZONESPLITTER,AIR LOOP HVAC ZONE SPLITTER 7,SP-STORAGE_FLR_1 SYS-4 FLR-2 SCH-E HPLCMT-NORTH ZN NECB SYSTEM 4 PSZ
     #Outlet Nodes on Supply Air Path Component,1
     Supply Air Path Component Nodes,1,AIRLOOPHVAC:ZONESPLITTER,AIR LOOP HVAC ZONE SPLITTER 7,NODE 173,NODE 175,SP-STORAGE_FLR_1 SYS-4 FLR-2 SCH-E HPLCMT-NORTH ZN NECB SYSTEM 4 PSZ
! <#Nodes on Supply Air Path>,<Number of Nodes>
! <Supply Air Path Node>,<Node Type>,<Node Count>,<Node Name>,<AirLoopHVAC Name>
#Nodes on Supply Air Path,2
   Supply Air Path Node,Inlet Node,1,NODE 173,SP-STORAGE_FLR_1 SYS-4 FLR-2 SCH-E HPLCMT-NORTH ZN NECB SYSTEM 4 PSZ
   Supply Air Path Node,Outlet Node,2,NODE 175,SP-STORAGE_FLR_1 SYS-4 FLR-2 SCH-E HPLCMT-NORTH ZN NECB SYSTEM 4 PSZ
 Supply Air Path,8,VAV WITH REHEAT NODE 213 SUPPLY PATH,VAV WITH REHEAT
   #Components on Supply Air Path,1
   Supply Air Path Component,1,AIRLOOPHVAC:ZONESPLITTER,AIR LOOP HVAC ZONE SPLITTER 8,VAV WITH REHEAT
     #Outlet Nodes on Supply Air Path Component,6
     Supply Air Path Component Nodes,1,AIRLOOPHVAC:ZONESPLITTER,AIR LOOP HVAC ZONE SPLITTER 8,NODE 213,NODE 228,VAV WITH REHEAT
     Supply Air Path Component Nodes,2,AIRLOOPHVAC:ZONESPLITTER,AIR LOOP HVAC ZONE SPLITTER 8,NODE 213,NODE 235,VAV WITH REHEAT
     Supply Air Path Component Nodes,3,AIRLOOPHVAC:ZONESPLITTER,AIR LOOP HVAC ZONE SPLITTER 8,NODE 213,NODE 242,VAV WITH REHEAT
     Supply Air Path Component Nodes,4,AIRLOOPHVAC:ZONESPLITTER,AIR LOOP HVAC ZONE SPLITTER 8,NODE 213,NODE 249,VAV WITH REHEAT
     Supply Air Path Component Nodes,5,AIRLOOPHVAC:ZONESPLITTER,AIR LOOP HVAC ZONE SPLITTER 8,NODE 213,NODE 256,VAV WITH REHEAT
     Supply Air Path Component Nodes,6,AIRLOOPHVAC:ZONESPLITTER,AIR LOOP HVAC ZONE SPLITTER 8,NODE 213,NODE 263,VAV WITH REHEAT
! <#Nodes on Supply Air Path>,<Number of Nodes>
! <Supply Air Path Node>,<Node Type>,<Node Count>,<Node Name>,<AirLoopHVAC Name>
#Nodes on Supply Air Path,7
   Supply Air Path Node,Inlet Node,1,NODE 213,VAV WITH REHEAT
   Supply Air Path Node,Outlet Node,2,NODE 228,VAV WITH REHEAT
   Supply Air Path Node,Outlet Node,3,NODE 235,VAV WITH REHEAT
   Supply Air Path Node,Outlet Node,4,NODE 242,VAV WITH REHEAT
   Supply Air Path Node,Outlet Node,5,NODE 249,VAV WITH REHEAT
   Supply Air Path Node,Outlet Node,6,NODE 256,VAV WITH REHEAT
   Supply Air Path Node,Outlet Node,7,NODE 263,VAV WITH REHEAT
! ===============================================================
! <#Return Air Paths>,<Number of Return Air Paths>
 #Return Air Paths,8
! <Return Air Path>,<Return Air Path Count>,<Return Air Path Name>,<AirLoopHVAC Name>
! <#Components on Return Air Path>,<Number of Components>
! <Return Air Path Component>,<Component Count>,<Component Type>,<Component Name>,<AirLoopHVAC Name>
! <#Inlet Nodes on Return Air Path Component>,<Number of Nodes>
! <Return Air Path Component Nodes>,<Node Count>,<Component Type>,<Component Name>,<Inlet Node Name>,<Outlet Node Name>,<AirLoopHVAC Name>
 Return Air Path,1,MAKE-UP AIR UNIT RETURN PATH,MAKE-UP AIR UNIT
   #Components on Return Air Path,1
   Return Air Path Component,1,AIRLOOPHVAC:ZONEMIXER,AIR LOOP HVAC ZONE MIXER 1,MAKE-UP AIR UNIT
     #Inlet Nodes on Return Air Path Component,10
     Return Air Path Component Nodes,1,AIRLOOPHVAC:ZONEMIXER,AIR LOOP HVAC ZONE MIXER 1,NODE 51,NODE 39,MAKE-UP AIR UNIT
     Return Air Path Component Nodes,2,AIRLOOPHVAC:ZONEMIXER,AIR LOOP HVAC ZONE MIXER 1,NODE 57,NODE 39,MAKE-UP AIR UNIT
     Return Air Path Component Nodes,3,AIRLOOPHVAC:ZONEMIXER,AIR LOOP HVAC ZONE MIXER 1,NODE 63,NODE 39,MAKE-UP AIR UNIT
     Return Air Path Component Nodes,4,AIRLOOPHVAC:ZONEMIXER,AIR LOOP HVAC ZONE MIXER 1,NODE 69,NODE 39,MAKE-UP AIR UNIT
     Return Air Path Component Nodes,5,AIRLOOPHVAC:ZONEMIXER,AIR LOOP HVAC ZONE MIXER 1,NODE 75,NODE 39,MAKE-UP AIR UNIT
     Return Air Path Component Nodes,6,AIRLOOPHVAC:ZONEMIXER,AIR LOOP HVAC ZONE MIXER 1,NODE 81,NODE 39,MAKE-UP AIR UNIT
     Return Air Path Component Nodes,7,AIRLOOPHVAC:ZONEMIXER,AIR LOOP HVAC ZONE MIXER 1,NODE 87,NODE 39,MAKE-UP AIR UNIT
     Return Air Path Component Nodes,8,AIRLOOPHVAC:ZONEMIXER,AIR LOOP HVAC ZONE MIXER 1,NODE 93,NODE 39,MAKE-UP AIR UNIT
     Return Air Path Component Nodes,9,AIRLOOPHVAC:ZONEMIXER,AIR LOOP HVAC ZONE MIXER 1,NODE 99,NODE 39,MAKE-UP AIR UNIT
     Return Air Path Component Nodes,10,AIRLOOPHVAC:ZONEMIXER,AIR LOOP HVAC ZONE MIXER 1,NODE 105,NODE 39,MAKE-UP AIR UNIT
! <#Nodes on Return Air Path>,<Number of Nodes>
! <Return Air Path Node>,<Node Type>,<Node Count>,<Node Name>,<AirLoopHVAC Name>
   #Nodes on Return Air Path,11
   Return Air Path Node,Outlet Node,1,NODE 39,MAKE-UP AIR UNIT
   Return Air Path Node,Inlet Node,2,NODE 51,MAKE-UP AIR UNIT
   Return Air Path Node,Inlet Node,3,NODE 57,MAKE-UP AIR UNIT
   Return Air Path Node,Inlet Node,4,NODE 63,MAKE-UP AIR UNIT
   Return Air Path Node,Inlet Node,5,NODE 69,MAKE-UP AIR UNIT
   Return Air Path Node,Inlet Node,6,NODE 75,MAKE-UP AIR UNIT
   Return Air Path Node,Inlet Node,7,NODE 81,MAKE-UP AIR UNIT
   Return Air Path Node,Inlet Node,8,NODE 87,MAKE-UP AIR UNIT
   Return Air Path Node,Inlet Node,9,NODE 93,MAKE-UP AIR UNIT
   Return Air Path Node,Inlet Node,10,NODE 99,MAKE-UP AIR UNIT
   Return Air Path Node,Inlet Node,11,NODE 105,MAKE-UP AIR UNIT
 Return Air Path,2,SP-BANQUET_FLR_6 SYS-3 FLR-4 SCH-B HPLCMT-NORTH ZN NECB SYSTEM 3 PSZ RETURN PATH,SP-BANQUET_FLR_6 SYS-3 FLR-4 SCH-B HPLCMT-NORTH ZN NECB SYSTEM 3 PSZ
   #Components on Return Air Path,1
   Return Air Path Component,1,AIRLOOPHVAC:ZONEMIXER,AIR LOOP HVAC ZONE MIXER 2,SP-BANQUET_FLR_6 SYS-3 FLR-4 SCH-B HPLCMT-NORTH ZN NECB SYSTEM 3 PSZ
     #Inlet Nodes on Return Air Path Component,1
     Return Air Path Component Nodes,1,AIRLOOPHVAC:ZONEMIXER,AIR LOOP HVAC ZONE MIXER 2,NODE 116,NODE 109,SP-BANQUET_FLR_6 SYS-3 FLR-4 SCH-B HPLCMT-NORTH ZN NECB SYSTEM 3 PSZ
! <#Nodes on Return Air Path>,<Number of Nodes>
! <Return Air Path Node>,<Node Type>,<Node Count>,<Node Name>,<AirLoopHVAC Name>
   #Nodes on Return Air Path,2
   Return Air Path Node,Outlet Node,1,NODE 109,SP-BANQUET_FLR_6 SYS-3 FLR-4 SCH-B HPLCMT-NORTH ZN NECB SYSTEM 3 PSZ
   Return Air Path Node,Inlet Node,2,NODE 116,SP-BANQUET_FLR_6 SYS-3 FLR-4 SCH-B HPLCMT-NORTH ZN NECB SYSTEM 3 PSZ
 Return Air Path,3,SP-BASEMENT SYS-4 FLR-1 SCH-E HPLCMT-NORTH ZN NECB SYSTEM 4 PSZ RETURN PATH,SP-BASEMENT SYS-4 FLR-1 SCH-E HPLCMT-NORTH ZN NECB SYSTEM 4 PSZ
   #Components on Return Air Path,1
   Return Air Path Component,1,AIRLOOPHVAC:ZONEMIXER,AIR LOOP HVAC ZONE MIXER 6,SP-BASEMENT SYS-4 FLR-1 SCH-E HPLCMT-NORTH ZN NECB SYSTEM 4 PSZ
     #Inlet Nodes on Return Air Path Component,1
     Return Air Path Component Nodes,1,AIRLOOPHVAC:ZONEMIXER,AIR LOOP HVAC ZONE MIXER 6,NODE 168,NODE 161,SP-BASEMENT SYS-4 FLR-1 SCH-E HPLCMT-NORTH ZN NECB SYSTEM 4 PSZ
! <#Nodes on Return Air Path>,<Number of Nodes>
! <Return Air Path Node>,<Node Type>,<Node Count>,<Node Name>,<AirLoopHVAC Name>
   #Nodes on Return Air Path,2
   Return Air Path Node,Outlet Node,1,NODE 161,SP-BASEMENT SYS-4 FLR-1 SCH-E HPLCMT-NORTH ZN NECB SYSTEM 4 PSZ
   Return Air Path Node,Inlet Node,2,NODE 168,SP-BASEMENT SYS-4 FLR-1 SCH-E HPLCMT-NORTH ZN NECB SYSTEM 4 PSZ
 Return Air Path,4,SP-CORRIDOR_FLR_6 SYS-3 FLR-4 SCH-E HPLCMT-SOUTH ZN NECB SYSTEM 3 PSZ RETURN PATH,SP-CORRIDOR_FLR_6 SYS-3 FLR-4 SCH-E HPLCMT-SOUTH ZN NECB SYSTEM 3 PSZ
   #Components on Return Air Path,1
   Return Air Path Component,1,AIRLOOPHVAC:ZONEMIXER,AIR LOOP HVAC ZONE MIXER 5,SP-CORRIDOR_FLR_6 SYS-3 FLR-4 SCH-E HPLCMT-SOUTH ZN NECB SYSTEM 3 PSZ
     #Inlet Nodes on Return Air Path Component,1
     Return Air Path Component Nodes,1,AIRLOOPHVAC:ZONEMIXER,AIR LOOP HVAC ZONE MIXER 5,NODE 155,NODE 148,SP-CORRIDOR_FLR_6 SYS-3 FLR-4 SCH-E HPLCMT-SOUTH ZN NECB SYSTEM 3 PSZ
! <#Nodes on Return Air Path>,<Number of Nodes>
! <Return Air Path Node>,<Node Type>,<Node Count>,<Node Name>,<AirLoopHVAC Name>
   #Nodes on Return Air Path,2
   Return Air Path Node,Outlet Node,1,NODE 148,SP-CORRIDOR_FLR_6 SYS-3 FLR-4 SCH-E HPLCMT-SOUTH ZN NECB SYSTEM 3 PSZ
   Return Air Path Node,Inlet Node,2,NODE 155,SP-CORRIDOR_FLR_6 SYS-3 FLR-4 SCH-E HPLCMT-SOUTH ZN NECB SYSTEM 3 PSZ
 Return Air Path,5,SP-DINING_FLR_6 SYS-3 FLR-4 SCH-B HPLCMT-NORTH ZN NECB SYSTEM 3 PSZ RETURN PATH,SP-DINING_FLR_6 SYS-3 FLR-4 SCH-B HPLCMT-NORTH ZN NECB SYSTEM 3 PSZ
   #Components on Return Air Path,1
   Return Air Path Component,1,AIRLOOPHVAC:ZONEMIXER,AIR LOOP HVAC ZONE MIXER 3,SP-DINING_FLR_6 SYS-3 FLR-4 SCH-B HPLCMT-NORTH ZN NECB SYSTEM 3 PSZ
     #Inlet Nodes on Return Air Path Component,1
     Return Air Path Component Nodes,1,AIRLOOPHVAC:ZONEMIXER,AIR LOOP HVAC ZONE MIXER 3,NODE 129,NODE 122,SP-DINING_FLR_6 SYS-3 FLR-4 SCH-B HPLCMT-NORTH ZN NECB SYSTEM 3 PSZ
! <#Nodes on Return Air Path>,<Number of Nodes>
! <Return Air Path Node>,<Node Type>,<Node Count>,<Node Name>,<AirLoopHVAC Name>
   #Nodes on Return Air Path,2
   Return Air Path Node,Outlet Node,1,NODE 122,SP-DINING_FLR_6 SYS-3 FLR-4 SCH-B HPLCMT-NORTH ZN NECB SYSTEM 3 PSZ
   Return Air Path Node,Inlet Node,2,NODE 129,SP-DINING_FLR_6 SYS-3 FLR-4 SCH-B HPLCMT-NORTH ZN NECB SYSTEM 3 PSZ
 Return Air Path,6,SP-KITCHEN_FLR_6 SYS-3 FLR-4 SCH-B HPLCMT-EAST ZN NECB SYSTEM 3 PSZ RETURN PATH,SP-KITCHEN_FLR_6 SYS-3 FLR-4 SCH-B HPLCMT-EAST ZN NECB SYSTEM 3 PSZ
   #Components on Return Air Path,1
   Return Air Path Component,1,AIRLOOPHVAC:ZONEMIXER,AIR LOOP HVAC ZONE MIXER 4,SP-KITCHEN_FLR_6 SYS-3 FLR-4 SCH-B HPLCMT-EAST ZN NECB SYSTEM 3 PSZ
     #Inlet Nodes on Return Air Path Component,1
     Return Air Path Component Nodes,1,AIRLOOPHVAC:ZONEMIXER,AIR LOOP HVAC ZONE MIXER 4,NODE 142,NODE 135,SP-KITCHEN_FLR_6 SYS-3 FLR-4 SCH-B HPLCMT-EAST ZN NECB SYSTEM 3 PSZ
! <#Nodes on Return Air Path>,<Number of Nodes>
! <Return Air Path Node>,<Node Type>,<Node Count>,<Node Name>,<AirLoopHVAC Name>
   #Nodes on Return Air Path,2
   Return Air Path Node,Outlet Node,1,NODE 135,SP-KITCHEN_FLR_6 SYS-3 FLR-4 SCH-B HPLCMT-EAST ZN NECB SYSTEM 3 PSZ
   Return Air Path Node,Inlet Node,2,NODE 142,SP-KITCHEN_FLR_6 SYS-3 FLR-4 SCH-B HPLCMT-EAST ZN NECB SYSTEM 3 PSZ
 Return Air Path,7,SP-STORAGE_FLR_1 SYS-4 FLR-2 SCH-E HPLCMT-NORTH ZN NECB SYSTEM 4 PSZ RETURN PATH,SP-STORAGE_FLR_1 SYS-4 FLR-2 SCH-E HPLCMT-NORTH ZN NECB SYSTEM 4 PSZ
   #Components on Return Air Path,1
   Return Air Path Component,1,AIRLOOPHVAC:ZONEMIXER,AIR LOOP HVAC ZONE MIXER 7,SP-STORAGE_FLR_1 SYS-4 FLR-2 SCH-E HPLCMT-NORTH ZN NECB SYSTEM 4 PSZ
     #Inlet Nodes on Return Air Path Component,1
     Return Air Path Component Nodes,1,AIRLOOPHVAC:ZONEMIXER,AIR LOOP HVAC ZONE MIXER 7,NODE 181,NODE 174,SP-STORAGE_FLR_1 SYS-4 FLR-2 SCH-E HPLCMT-NORTH ZN NECB SYSTEM 4 PSZ
! <#Nodes on Return Air Path>,<Number of Nodes>
! <Return Air Path Node>,<Node Type>,<Node Count>,<Node Name>,<AirLoopHVAC Name>
   #Nodes on Return Air Path,2
   Return Air Path Node,Outlet Node,1,NODE 174,SP-STORAGE_FLR_1 SYS-4 FLR-2 SCH-E HPLCMT-NORTH ZN NECB SYSTEM 4 PSZ
   Return Air Path Node,Inlet Node,2,NODE 181,SP-STORAGE_FLR_1 SYS-4 FLR-2 SCH-E HPLCMT-NORTH ZN NECB SYSTEM 4 PSZ
 Return Air Path,8,VAV WITH REHEAT RETURN PATH,VAV WITH REHEAT
   #Components on Return Air Path,1
   Return Air Path Component,1,AIRLOOPHVAC:ZONEMIXER,AIR LOOP HVAC ZONE MIXER 8,VAV WITH REHEAT
     #Inlet Nodes on Return Air Path Component,6
     Return Air Path Component Nodes,1,AIRLOOPHVAC:ZONEMIXER,AIR LOOP HVAC ZONE MIXER 8,NODE 227,NODE 214,VAV WITH REHEAT
     Return Air Path Component Nodes,2,AIRLOOPHVAC:ZONEMIXER,AIR LOOP HVAC ZONE MIXER 8,NODE 234,NODE 214,VAV WITH REHEAT
     Return Air Path Component Nodes,3,AIRLOOPHVAC:ZONEMIXER,AIR LOOP HVAC ZONE MIXER 8,NODE 241,NODE 214,VAV WITH REHEAT
     Return Air Path Component Nodes,4,AIRLOOPHVAC:ZONEMIXER,AIR LOOP HVAC ZONE MIXER 8,NODE 248,NODE 214,VAV WITH REHEAT
     Return Air Path Component Nodes,5,AIRLOOPHVAC:ZONEMIXER,AIR LOOP HVAC ZONE MIXER 8,NODE 255,NODE 214,VAV WITH REHEAT
     Return Air Path Component Nodes,6,AIRLOOPHVAC:ZONEMIXER,AIR LOOP HVAC ZONE MIXER 8,NODE 262,NODE 214,VAV WITH REHEAT
! <#Nodes on Return Air Path>,<Number of Nodes>
! <Return Air Path Node>,<Node Type>,<Node Count>,<Node Name>,<AirLoopHVAC Name>
   #Nodes on Return Air Path,7
   Return Air Path Node,Outlet Node,1,NODE 214,VAV WITH REHEAT
   Return Air Path Node,Inlet Node,2,NODE 227,VAV WITH REHEAT
   Return Air Path Node,Inlet Node,3,NODE 234,VAV WITH REHEAT
   Return Air Path Node,Inlet Node,4,NODE 241,VAV WITH REHEAT
   Return Air Path Node,Inlet Node,5,NODE 248,VAV WITH REHEAT
   Return Air Path Node,Inlet Node,6,NODE 255,VAV WITH REHEAT
   Return Air Path Node,Inlet Node,7,NODE 262,VAV WITH REHEAT
! ===============================================================
! #Outdoor Air Nodes,<Number of Outdoor Air Nodes>
 #Outdoor Air Nodes,19
! <Outdoor Air Node>,<NodeNumber>,<Node Name>
 Outdoor Air Node,310,SP-CORRIDOR_FLR_3 SYS-1 FLR-3 SCH-E HPLCMT-SOUTH ZN PTAC OA NODE
 Outdoor Air Node,311,SP-ROOM_1_FLR_3 SYS-1 FLR-3 SCH-F HPLCMT-WEST ZN PTAC OA NODE
 Outdoor Air Node,312,SP-ROOM_1_FLR_6 SYS-1 FLR-4 SCH-F HPLCMT-WEST ZN PTAC OA NODE
 Outdoor Air Node,313,SP-ROOM_2_FLR_3 SYS-1 FLR-3 SCH-F HPLCMT-WEST ZN PTAC OA NODE
 Outdoor Air Node,314,SP-ROOM_2_FLR_6 SYS-1 FLR-4 SCH-F HPLCMT-WEST ZN PTAC OA NODE
 Outdoor Air Node,315,SP-ROOM_3_MULT19_FLR_3 SYS-1 FLR-3 SCH-F HPLCMT-SOUTH ZN PTAC OA NODE
 Outdoor Air Node,316,SP-ROOM_3_MULT9_FLR_6 SYS-1 FLR-4 SCH-F HPLCMT-SOUTH ZN PTAC OA NODE
 Outdoor Air Node,317,SP-ROOM_4_MULT19_FLR_3 SYS-1 FLR-3 SCH-F HPLCMT-NORTH ZN PTAC OA NODE
 Outdoor Air Node,318,SP-ROOM_5_FLR_3 SYS-1 FLR-3 SCH-F HPLCMT-EAST ZN PTAC OA NODE
 Outdoor Air Node,319,SP-ROOM_6_FLR_3 SYS-1 FLR-3 SCH-F HPLCMT-EAST ZN PTAC OA NODE
 Outdoor Air Node,320,NODE 42
 Outdoor Air Node,321,NODE 111
 Outdoor Air Node,322,NODE 163
 Outdoor Air Node,323,NODE 150
 Outdoor Air Node,324,NODE 124
 Outdoor Air Node,325,NODE 137
 Outdoor Air Node,326,NODE 176
 Outdoor Air Node,327,NODE 219
 Outdoor Air Node,328,MODEL OUTDOOR AIR NODE
! ===============================================================
! <#Component Sets>,<Number of Component Sets>
 #Component Sets,183
! <Component Set>,<Component Set Count>,<Parent Object Type>,<Parent Object Name>,<Component Type>,<Component Name>,<Inlet Node ID>,<Outlet Node ID>,<Description>
 Component Set,1,BRANCH,MAKE-UP AIR UNIT MAIN BRANCH,AIRLOOPHVAC:OUTDOORAIRSYSTEM,AIR LOOP HVAC OUTDOOR AIR SYSTEM 1,NODE 36,NODE 46,Air Nodes
 Component Set,2,BRANCH,MAKE-UP AIR UNIT MAIN BRANCH,COILSYSTEM:COOLING:DX,COIL COOLING DX SINGLE SPEED 1 COILSYSTEM,NODE 46,NODE 45,Air Nodes
 Component Set,3,BRANCH,MAKE-UP AIR UNIT MAIN BRANCH,COIL:HEATING:WATER,COIL HEATING WATER 1,NODE 45,NODE 44,Air Nodes
 Component Set,4,BRANCH,MAKE-UP AIR UNIT MAIN BRANCH,FAN:CONSTANTVOLUME,FAN CONSTANT VOLUME 1,NODE 44,NODE 37,Air Nodes
 Component Set,5,BRANCH,SP-BANQUET_FLR_6 SYS-3 FLR-4 SCH-B HPLCMT-NORTH ZN NECB SYSTEM 3 PSZ MAIN BRANCH,AIRLOOPHVAC:OUTDOORAIRSYSTEM,AIR LOOP HVAC OUTDOOR AIR SYSTEM 2,NODE 106,NODE 115,Air Nodes
 Component Set,6,BRANCH,SP-BANQUET_FLR_6 SYS-3 FLR-4 SCH-B HPLCMT-NORTH ZN NECB SYSTEM 3 PSZ MAIN BRANCH,COILSYSTEM:COOLING:DX,COIL COOLING DX SINGLE SPEED 12 COILSYSTEM,NODE 115,NODE 114,Air Nodes
 Component Set,7,BRANCH,SP-BANQUET_FLR_6 SYS-3 FLR-4 SCH-B HPLCMT-NORTH ZN NECB SYSTEM 3 PSZ MAIN BRANCH,COIL:HEATING:FUEL,COIL HEATING GAS 1,NODE 114,NODE 113,Air Nodes
 Component Set,8,BRANCH,SP-BANQUET_FLR_6 SYS-3 FLR-4 SCH-B HPLCMT-NORTH ZN NECB SYSTEM 3 PSZ MAIN BRANCH,FAN:CONSTANTVOLUME,FAN CONSTANT VOLUME 12,NODE 113,NODE 107,Air Nodes
 Component Set,9,BRANCH,SP-BASEMENT SYS-4 FLR-1 SCH-E HPLCMT-NORTH ZN NECB SYSTEM 4 PSZ MAIN BRANCH,AIRLOOPHVAC:OUTDOORAIRSYSTEM,AIR LOOP HVAC OUTDOOR AIR SYSTEM 6,NODE 158,NODE 167,Air Nodes
 Component Set,10,BRANCH,SP-BASEMENT SYS-4 FLR-1 SCH-E HPLCMT-NORTH ZN NECB SYSTEM 4 PSZ MAIN BRANCH,COILSYSTEM:COOLING:DX,COIL COOLING DX SINGLE SPEED 16 COILSYSTEM,NODE 167,NODE 166,Air Nodes
 Component Set,11,BRANCH,SP-BASEMENT SYS-4 FLR-1 SCH-E HPLCMT-NORTH ZN NECB SYSTEM 4 PSZ MAIN BRANCH,COIL:HEATING:FUEL,COIL HEATING GAS 5,NODE 166,NODE 165,Air Nodes
 Component Set,12,BRANCH,SP-BASEMENT SYS-4 FLR-1 SCH-E HPLCMT-NORTH ZN NECB SYSTEM 4 PSZ MAIN BRANCH,FAN:CONSTANTVOLUME,FAN CONSTANT VOLUME 16,NODE 165,NODE 159,Air Nodes
 Component Set,13,BRANCH,SP-CORRIDOR_FLR_6 SYS-3 FLR-4 SCH-E HPLCMT-SOUTH ZN NECB SYSTEM 3 PSZ MAIN BRANCH,AIRLOOPHVAC:OUTDOORAIRSYSTEM,AIR LOOP HVAC OUTDOOR AIR SYSTEM 5,NODE 145,NODE 154,Air Nodes
 Component Set,14,BRANCH,SP-CORRIDOR_FLR_6 SYS-3 FLR-4 SCH-E HPLCMT-SOUTH ZN NECB SYSTEM 3 PSZ MAIN BRANCH,COILSYSTEM:COOLING:DX,COIL COOLING DX SINGLE SPEED 15 COILSYSTEM,NODE 154,NODE 153,Air Nodes
 Component Set,15,BRANCH,SP-CORRIDOR_FLR_6 SYS-3 FLR-4 SCH-E HPLCMT-SOUTH ZN NECB SYSTEM 3 PSZ MAIN BRANCH,COIL:HEATING:FUEL,COIL HEATING GAS 4,NODE 153,NODE 152,Air Nodes
 Component Set,16,BRANCH,SP-CORRIDOR_FLR_6 SYS-3 FLR-4 SCH-E HPLCMT-SOUTH ZN NECB SYSTEM 3 PSZ MAIN BRANCH,FAN:CONSTANTVOLUME,FAN CONSTANT VOLUME 15,NODE 152,NODE 146,Air Nodes
 Component Set,17,BRANCH,SP-DINING_FLR_6 SYS-3 FLR-4 SCH-B HPLCMT-NORTH ZN NECB SYSTEM 3 PSZ MAIN BRANCH,AIRLOOPHVAC:OUTDOORAIRSYSTEM,AIR LOOP HVAC OUTDOOR AIR SYSTEM 3,NODE 119,NODE 128,Air Nodes
 Component Set,18,BRANCH,SP-DINING_FLR_6 SYS-3 FLR-4 SCH-B HPLCMT-NORTH ZN NECB SYSTEM 3 PSZ MAIN BRANCH,COILSYSTEM:COOLING:DX,COIL COOLING DX SINGLE SPEED 13 COILSYSTEM,NODE 128,NODE 127,Air Nodes
 Component Set,19,BRANCH,SP-DINING_FLR_6 SYS-3 FLR-4 SCH-B HPLCMT-NORTH ZN NECB SYSTEM 3 PSZ MAIN BRANCH,COIL:HEATING:FUEL,COIL HEATING GAS 2,NODE 127,NODE 126,Air Nodes
 Component Set,20,BRANCH,SP-DINING_FLR_6 SYS-3 FLR-4 SCH-B HPLCMT-NORTH ZN NECB SYSTEM 3 PSZ MAIN BRANCH,FAN:CONSTANTVOLUME,FAN CONSTANT VOLUME 13,NODE 126,NODE 120,Air Nodes
 Component Set,21,BRANCH,SP-KITCHEN_FLR_6 SYS-3 FLR-4 SCH-B HPLCMT-EAST ZN NECB SYSTEM 3 PSZ MAIN BRANCH,AIRLOOPHVAC:OUTDOORAIRSYSTEM,AIR LOOP HVAC OUTDOOR AIR SYSTEM 4,NODE 132,NODE 141,Air Nodes
 Component Set,22,BRANCH,SP-KITCHEN_FLR_6 SYS-3 FLR-4 SCH-B HPLCMT-EAST ZN NECB SYSTEM 3 PSZ MAIN BRANCH,COILSYSTEM:COOLING:DX,COIL COOLING DX SINGLE SPEED 14 COILSYSTEM,NODE 141,NODE 140,Air Nodes
 Component Set,23,BRANCH,SP-KITCHEN_FLR_6 SYS-3 FLR-4 SCH-B HPLCMT-EAST ZN NECB SYSTEM 3 PSZ MAIN BRANCH,COIL:HEATING:FUEL,COIL HEATING GAS 3,NODE 140,NODE 139,Air Nodes
 Component Set,24,BRANCH,SP-KITCHEN_FLR_6 SYS-3 FLR-4 SCH-B HPLCMT-EAST ZN NECB SYSTEM 3 PSZ MAIN BRANCH,FAN:CONSTANTVOLUME,FAN CONSTANT VOLUME 14,NODE 139,NODE 133,Air Nodes
 Component Set,25,BRANCH,SP-STORAGE_FLR_1 SYS-4 FLR-2 SCH-E HPLCMT-NORTH ZN NECB SYSTEM 4 PSZ MAIN BRANCH,AIRLOOPHVAC:OUTDOORAIRSYSTEM,AIR LOOP HVAC OUTDOOR AIR SYSTEM 7,NODE 171,NODE 180,Air Nodes
 Component Set,26,BRANCH,SP-STORAGE_FLR_1 SYS-4 FLR-2 SCH-E HPLCMT-NORTH ZN NECB SYSTEM 4 PSZ MAIN BRANCH,COILSYSTEM:COOLING:DX,COIL COOLING DX SINGLE SPEED 17 COILSYSTEM,NODE 180,NODE 179,Air Nodes
 Component Set,27,BRANCH,SP-STORAGE_FLR_1 SYS-4 FLR-2 SCH-E HPLCMT-NORTH ZN NECB SYSTEM 4 PSZ MAIN BRANCH,COIL:HEATING:FUEL,COIL HEATING GAS 6,NODE 179,NODE 178,Air Nodes
 Component Set,28,BRANCH,SP-STORAGE_FLR_1 SYS-4 FLR-2 SCH-E HPLCMT-NORTH ZN NECB SYSTEM 4 PSZ MAIN BRANCH,FAN:CONSTANTVOLUME,FAN CONSTANT VOLUME 17,NODE 178,NODE 172,Air Nodes
 Component Set,29,BRANCH,VAV WITH REHEAT MAIN BRANCH,FAN:VARIABLEVOLUME,SYS6 RETURN FAN,NODE 211,NODE 224,Air Nodes
 Component Set,30,BRANCH,VAV WITH REHEAT MAIN BRANCH,AIRLOOPHVAC:OUTDOORAIRSYSTEM,AIR LOOP HVAC OUTDOOR AIR SYSTEM 8,NODE 224,NODE 223,Air Nodes
 Component Set,31,BRANCH,VAV WITH REHEAT MAIN BRANCH,COIL:COOLING:WATER,COIL COOLING WATER 1,NODE 223,NODE 222,Air Nodes
 Component Set,32,BRANCH,VAV WITH REHEAT MAIN BRANCH,COIL:HEATING:WATER,COIL HEATING WATER 2,NODE 222,NODE 221,Air Nodes
 Component Set,33,BRANCH,VAV WITH REHEAT MAIN BRANCH,FAN:VARIABLEVOLUME,SYS6 SUPPLY FAN,NODE 221,NODE 212,Air Nodes
 Component Set,34,BRANCH,CHILLED WATER LOOP SUPPLY INLET BRANCH,PUMP:CONSTANTSPEED,PUMP CONSTANT SPEED 1,NODE 184,NODE 190,Water Nodes
 Component Set,35,BRANCH,CHILLED WATER LOOP SUPPLY BRANCH 1,CHILLER:ELECTRIC:EIR,PRIMARY CHILLER WATERCOOLED SCROLL,NODE 186,NODE 191,Chilled Water Nodes
 Component Set,36,BRANCH,CHILLED WATER LOOP SUPPLY BRANCH 2,CHILLER:ELECTRIC:EIR,SECONDARY CHILLER WATERCOOLED SCROLL,NODE 192,NODE 193,Chilled Water Nodes
 Component Set,37,BRANCH,CHILLED WATER LOOP SUPPLY BRANCH 3,PIPE:ADIABATIC,PIPE ADIABATIC 3,NODE 194,NODE 195,Pipe Nodes
 Component Set,38,BRANCH,CHILLED WATER LOOP SUPPLY OUTLET BRANCH,PIPE:ADIABATIC,PIPE ADIABATIC 4,NODE 196,NODE 185,Pipe Nodes
 Component Set,39,BRANCH,CHILLED WATER LOOP DEMAND INLET BRANCH,PIPE:ADIABATIC,CHILLED WATER LOOP DEMAND INLET PIPE,NODE 187,CHILLED WATER LOOP DEMAND INLET PIPE NODE,Pipe Nodes
 Component Set,40,BRANCH,CHILLED WATER LOOP DEMAND BRANCH 1,COIL:COOLING:WATER,COIL COOLING WATER 1,NODE 189,NODE 218,Water Nodes
 Component Set,41,BRANCH,CHILLED WATER LOOP DEMAND BYPASS BRANCH,PIPE:ADIABATIC,CHILLED WATER LOOP DEMAND BYPASS PIPE,CHILLED WATER LOOP DEMAND BYPASS PIPE INLET NODE,CHILLED WATER LOOP DEMAND BYPASS PIPE OUTLET NODE,Pipe Nodes
 Component Set,42,BRANCH,CHILLED WATER LOOP DEMAND OUTLET BRANCH,PIPE:ADIABATIC,CHILLED WATER LOOP DEMAND OUTLET PIPE,CHILLED WATER LOOP DEMAND OUTLET PIPE NODE,NODE 188,Pipe Nodes
 Component Set,43,BRANCH,CONDENSER WATER LOOP SUPPLY INLET BRANCH,PUMP:CONSTANTSPEED,PUMP CONSTANT SPEED 2,NODE 197,NODE 203,Water Nodes
 Component Set,44,BRANCH,CONDENSER WATER LOOP SUPPLY BRANCH 1,COOLINGTOWER:SINGLESPEED,COOLING TOWER SINGLE SPEED 1,NODE 199,NODE 204,Chilled Water Nodes
 Component Set,45,BRANCH,CONDENSER WATER LOOP SUPPLY BRANCH 2,PIPE:ADIABATIC,PIPE ADIABATIC 5,NODE 205,NODE 206,Pipe Nodes
 Component Set,46,BRANCH,CONDENSER WATER LOOP SUPPLY OUTLET BRANCH,PIPE:ADIABATIC,PIPE ADIABATIC 6,NODE 207,NODE 198,Pipe Nodes
 Component Set,47,BRANCH,CONDENSER WATER LOOP DEMAND INLET BRANCH,PIPE:ADIABATIC,CONDENSER WATER LOOP DEMAND INLET PIPE,NODE 200,CONDENSER WATER LOOP DEMAND INLET PIPE NODE,Pipe Nodes
 Component Set,48,BRANCH,CONDENSER WATER LOOP DEMAND BRANCH 1,CHILLER:ELECTRIC:EIR,PRIMARY CHILLER WATERCOOLED SCROLL,NODE 202,NODE 208,Condenser Water Nodes
 Component Set,49,BRANCH,CONDENSER WATER LOOP DEMAND BRANCH 2,CHILLER:ELECTRIC:EIR,SECONDARY CHILLER WATERCOOLED SCROLL,NODE 209,NODE 210,Condenser Water Nodes
 Component Set,50,BRANCH,CONDENSER WATER LOOP DEMAND BYPASS BRANCH,PIPE:ADIABATIC,CONDENSER WATER LOOP DEMAND BYPASS PIPE,CONDENSER WATER LOOP DEMAND BYPASS PIPE INLET NODE,CONDENSER WATER LOOP DEMAND BYPASS PIPE OUTLET NODE,Pipe Nodes
 Component Set,51,BRANCH,CONDENSER WATER LOOP DEMAND OUTLET BRANCH,PIPE:ADIABATIC,CONDENSER WATER LOOP DEMAND OUTLET PIPE,CONDENSER WATER LOOP DEMAND OUTLET PIPE NODE,NODE 201,Pipe Nodes
 Component Set,52,BRANCH,HOT WATER LOOP SUPPLY INLET BRANCH,PUMP:VARIABLESPEED,PUMP VARIABLE SPEED 1,NODE 23,NODE 29,Water Nodes
 Component Set,53,BRANCH,HOT WATER LOOP SUPPLY BRANCH 1,BOILER:HOTWATER,PRIMARY BOILER,NODE 25,NODE 30,Hot Water Nodes
 Component Set,54,BRANCH,HOT WATER LOOP SUPPLY BRANCH 2,BOILER:HOTWATER,SECONDARY BOILER,NODE 31,NODE 32,Hot Water Nodes
 Component Set,55,BRANCH,HOT WATER LOOP SUPPLY BRANCH 3,PIPE:ADIABATIC,PIPE ADIABATIC 1,NODE 33,NODE 34,Pipe Nodes
 Component Set,56,BRANCH,HOT WATER LOOP SUPPLY OUTLET BRANCH,PIPE:ADIABATIC,PIPE ADIABATIC 2,NODE 35,NODE 24,Pipe Nodes
 Component Set,57,BRANCH,HOT WATER LOOP DEMAND INLET BRANCH,PIPE:ADIABATIC,HOT WATER LOOP DEMAND INLET PIPE,NODE 26,HOT WATER LOOP DEMAND INLET PIPE NODE,Pipe Nodes
 Component Set,58,BRANCH,HOT WATER LOOP DEMAND BRANCH 1,COIL:HEATING:WATER,COIL HEATING WATER 1,NODE 28,NODE 41,Water Nodes
 Component Set,59,BRANCH,HOT WATER LOOP DEMAND BRANCH 2,ZONEHVAC:BASEBOARD:CONVECTIVE:WATER,ZONE HVAC BASEBOARD CONVECTIVE WATER 1,NODE 49,NODE 50,Hot Water Nodes
 Component Set,60,BRANCH,HOT WATER LOOP DEMAND BRANCH 3,ZONEHVAC:BASEBOARD:CONVECTIVE:WATER,ZONE HVAC BASEBOARD CONVECTIVE WATER 2,NODE 54,NODE 55,Hot Water Nodes
 Component Set,61,BRANCH,HOT WATER LOOP DEMAND BRANCH 4,ZONEHVAC:BASEBOARD:CONVECTIVE:WATER,ZONE HVAC BASEBOARD CONVECTIVE WATER 3,NODE 60,NODE 61,Hot Water Nodes
 Component Set,62,BRANCH,HOT WATER LOOP DEMAND BRANCH 5,ZONEHVAC:BASEBOARD:CONVECTIVE:WATER,ZONE HVAC BASEBOARD CONVECTIVE WATER 4,NODE 66,NODE 67,Hot Water Nodes
 Component Set,63,BRANCH,HOT WATER LOOP DEMAND BRANCH 6,ZONEHVAC:BASEBOARD:CONVECTIVE:WATER,ZONE HVAC BASEBOARD CONVECTIVE WATER 5,NODE 72,NODE 73,Hot Water Nodes
 Component Set,64,BRANCH,HOT WATER LOOP DEMAND BRANCH 7,ZONEHVAC:BASEBOARD:CONVECTIVE:WATER,ZONE HVAC BASEBOARD CONVECTIVE WATER 6,NODE 78,NODE 79,Hot Water Nodes
 Component Set,65,BRANCH,HOT WATER LOOP DEMAND BRANCH 8,ZONEHVAC:BASEBOARD:CONVECTIVE:WATER,ZONE HVAC BASEBOARD CONVECTIVE WATER 7,NODE 84,NODE 85,Hot Water Nodes
 Component Set,66,BRANCH,HOT WATER LOOP DEMAND BRANCH 9,ZONEHVAC:BASEBOARD:CONVECTIVE:WATER,ZONE HVAC BASEBOARD CONVECTIVE WATER 8,NODE 90,NODE 91,Hot Water Nodes
 Component Set,67,BRANCH,HOT WATER LOOP DEMAND BRANCH 10,ZONEHVAC:BASEBOARD:CONVECTIVE:WATER,ZONE HVAC BASEBOARD CONVECTIVE WATER 9,NODE 96,NODE 97,Hot Water Nodes
 Component Set,68,BRANCH,HOT WATER LOOP DEMAND BRANCH 11,ZONEHVAC:BASEBOARD:CONVECTIVE:WATER,ZONE HVAC BASEBOARD CONVECTIVE WATER 10,NODE 102,NODE 103,Hot Water Nodes
 Component Set,69,BRANCH,HOT WATER LOOP DEMAND BRANCH 12,ZONEHVAC:BASEBOARD:CONVECTIVE:WATER,ZONE HVAC BASEBOARD CONVECTIVE WATER 11,NODE 117,NODE 118,Hot Water Nodes
 Component Set,70,BRANCH,HOT WATER LOOP DEMAND BRANCH 13,ZONEHVAC:BASEBOARD:CONVECTIVE:WATER,ZONE HVAC BASEBOARD CONVECTIVE WATER 12,NODE 130,NODE 131,Hot Water Nodes
 Component Set,71,BRANCH,HOT WATER LOOP DEMAND BRANCH 14,ZONEHVAC:BASEBOARD:CONVECTIVE:WATER,ZONE HVAC BASEBOARD CONVECTIVE WATER 13,NODE 143,NODE 144,Hot Water Nodes
 Component Set,72,BRANCH,HOT WATER LOOP DEMAND BRANCH 15,ZONEHVAC:BASEBOARD:CONVECTIVE:WATER,ZONE HVAC BASEBOARD CONVECTIVE WATER 14,NODE 156,NODE 157,Hot Water Nodes
 Component Set,73,BRANCH,HOT WATER LOOP DEMAND BRANCH 16,ZONEHVAC:BASEBOARD:CONVECTIVE:WATER,ZONE HVAC BASEBOARD CONVECTIVE WATER 15,NODE 169,NODE 170,Hot Water Nodes
 Component Set,74,BRANCH,HOT WATER LOOP DEMAND BRANCH 17,ZONEHVAC:BASEBOARD:CONVECTIVE:WATER,ZONE HVAC BASEBOARD CONVECTIVE WATER 16,NODE 182,NODE 183,Hot Water Nodes
 Component Set,75,BRANCH,HOT WATER LOOP DEMAND BRANCH 18,COIL:HEATING:WATER,COIL HEATING WATER 2,NODE 216,NODE 217,Water Nodes
 Component Set,76,BRANCH,HOT WATER LOOP DEMAND BRANCH 19,COIL:HEATING:WATER,COIL HEATING WATER 3,NODE 225,NODE 226,Water Nodes
 Component Set,77,BRANCH,HOT WATER LOOP DEMAND BRANCH 20,ZONEHVAC:BASEBOARD:CONVECTIVE:WATER,ZONE HVAC BASEBOARD CONVECTIVE WATER 17,NODE 229,NODE 230,Hot Water Nodes
 Component Set,78,BRANCH,HOT WATER LOOP DEMAND BRANCH 21,COIL:HEATING:WATER,COIL HEATING WATER 4,NODE 231,NODE 232,Water Nodes
 Component Set,79,BRANCH,HOT WATER LOOP DEMAND BRANCH 22,ZONEHVAC:BASEBOARD:CONVECTIVE:WATER,ZONE HVAC BASEBOARD CONVECTIVE WATER 18,NODE 236,NODE 237,Hot Water Nodes
 Component Set,80,BRANCH,HOT WATER LOOP DEMAND BRANCH 23,COIL:HEATING:WATER,COIL HEATING WATER 5,NODE 238,NODE 239,Water Nodes
 Component Set,81,BRANCH,HOT WATER LOOP DEMAND BRANCH 24,ZONEHVAC:BASEBOARD:CONVECTIVE:WATER,ZONE HVAC BASEBOARD CONVECTIVE WATER 19,NODE 243,NODE 244,Hot Water Nodes
 Component Set,82,BRANCH,HOT WATER LOOP DEMAND BRANCH 25,COIL:HEATING:WATER,COIL HEATING WATER 6,NODE 245,NODE 246,Water Nodes
 Component Set,83,BRANCH,HOT WATER LOOP DEMAND BRANCH 26,ZONEHVAC:BASEBOARD:CONVECTIVE:WATER,ZONE HVAC BASEBOARD CONVECTIVE WATER 20,NODE 250,NODE 251,Hot Water Nodes
 Component Set,84,BRANCH,HOT WATER LOOP DEMAND BRANCH 27,COIL:HEATING:WATER,COIL HEATING WATER 7,NODE 252,NODE 253,Water Nodes
 Component Set,85,BRANCH,HOT WATER LOOP DEMAND BRANCH 28,ZONEHVAC:BASEBOARD:CONVECTIVE:WATER,ZONE HVAC BASEBOARD CONVECTIVE WATER 21,NODE 257,NODE 258,Hot Water Nodes
 Component Set,86,BRANCH,HOT WATER LOOP DEMAND BRANCH 29,COIL:HEATING:WATER,COIL HEATING WATER 8,NODE 259,NODE 260,Water Nodes
 Component Set,87,BRANCH,HOT WATER LOOP DEMAND BRANCH 30,ZONEHVAC:BASEBOARD:CONVECTIVE:WATER,ZONE HVAC BASEBOARD CONVECTIVE WATER 22,NODE 264,NODE 265,Hot Water Nodes
 Component Set,88,BRANCH,HOT WATER LOOP DEMAND BYPASS BRANCH,PIPE:ADIABATIC,HOT WATER LOOP DEMAND BYPASS PIPE,HOT WATER LOOP DEMAND BYPASS PIPE INLET NODE,HOT WATER LOOP DEMAND BYPASS PIPE OUTLET NODE,Pipe Nodes
 Component Set,89,BRANCH,HOT WATER LOOP DEMAND OUTLET BRANCH,PIPE:ADIABATIC,HOT WATER LOOP DEMAND OUTLET PIPE,HOT WATER LOOP DEMAND OUTLET PIPE NODE,NODE 27,Pipe Nodes
 Component Set,90,BRANCH,MAIN SERVICE WATER LOOP SUPPLY INLET BRANCH,PUMP:CONSTANTSPEED,SERVICE WATER LOOP PUMP,NODE 266,NODE 272,Water Nodes
 Component Set,91,BRANCH,MAIN SERVICE WATER LOOP SUPPLY BRANCH 1,WATERHEATER:MIXED,379GAL NATURALGAS WATER HEATER - 597KBTU/HR,NODE 268,NODE 273,Use Side Water Nodes
 Component Set,92,BRANCH,MAIN SERVICE WATER LOOP SUPPLY BRANCH 2,PIPE:ADIABATIC,PIPE ADIABATIC 7,NODE 274,NODE 275,Pipe Nodes
 Component Set,93,BRANCH,MAIN SERVICE WATER LOOP SUPPLY OUTLET BRANCH,PIPE:ADIABATIC,PIPE ADIABATIC 9,NODE 277,NODE 267,Pipe Nodes
 Component Set,94,BRANCH,MAIN SERVICE WATER LOOP DEMAND INLET BRANCH,PIPE:ADIABATIC,PIPE ADIABATIC 10,NODE 269,NODE 278,Pipe Nodes
 Component Set,95,BRANCH,MAIN SERVICE WATER LOOP DEMAND BRANCH 1,PIPE:ADIABATIC,PIPE ADIABATIC 8,NODE 271,NODE 276,Pipe Nodes
 Component Set,96,BRANCH,MAIN SERVICE WATER LOOP DEMAND BRANCH 2,WATERUSE:CONNECTIONS,WATER USE CONNECTIONS 1,NODE 280,NODE 281,DHW Nodes
 Component Set,97,BRANCH,MAIN SERVICE WATER LOOP DEMAND BRANCH 3,WATERUSE:CONNECTIONS,WATER USE CONNECTIONS 2,NODE 282,NODE 283,DHW Nodes
 Component Set,98,BRANCH,MAIN SERVICE WATER LOOP DEMAND BRANCH 4,WATERUSE:CONNECTIONS,WATER USE CONNECTIONS 3,NODE 284,NODE 285,DHW Nodes
 Component Set,99,BRANCH,MAIN SERVICE WATER LOOP DEMAND BRANCH 5,WATERUSE:CONNECTIONS,WATER USE CONNECTIONS 4,NODE 286,NODE 287,DHW Nodes
 Component Set,100,BRANCH,MAIN SERVICE WATER LOOP DEMAND BRANCH 6,WATERUSE:CONNECTIONS,WATER USE CONNECTIONS 5,NODE 288,NODE 289,DHW Nodes
 Component Set,101,BRANCH,MAIN SERVICE WATER LOOP DEMAND BRANCH 7,WATERUSE:CONNECTIONS,WATER USE CONNECTIONS 6,NODE 290,NODE 291,DHW Nodes
 Component Set,102,BRANCH,MAIN SERVICE WATER LOOP DEMAND BRANCH 8,WATERUSE:CONNECTIONS,WATER USE CONNECTIONS 7,NODE 292,NODE 293,DHW Nodes
 Component Set,103,BRANCH,MAIN SERVICE WATER LOOP DEMAND BRANCH 9,WATERUSE:CONNECTIONS,WATER USE CONNECTIONS 8,NODE 294,NODE 295,DHW Nodes
 Component Set,104,BRANCH,MAIN SERVICE WATER LOOP DEMAND BRANCH 10,WATERUSE:CONNECTIONS,WATER USE CONNECTIONS 9,NODE 296,NODE 297,DHW Nodes
 Component Set,105,BRANCH,MAIN SERVICE WATER LOOP DEMAND BRANCH 11,WATERUSE:CONNECTIONS,WATER USE CONNECTIONS 10,NODE 298,NODE 299,DHW Nodes
 Component Set,106,BRANCH,MAIN SERVICE WATER LOOP DEMAND BRANCH 12,WATERUSE:CONNECTIONS,WATER USE CONNECTIONS 11,NODE 300,NODE 301,DHW Nodes
 Component Set,107,BRANCH,MAIN SERVICE WATER LOOP DEMAND BRANCH 13,WATERUSE:CONNECTIONS,WATER USE CONNECTIONS 12,NODE 302,NODE 303,DHW Nodes
 Component Set,108,BRANCH,MAIN SERVICE WATER LOOP DEMAND BRANCH 14,WATERUSE:CONNECTIONS,WATER USE CONNECTIONS 13,NODE 304,NODE 305,DHW Nodes
 Component Set,109,BRANCH,MAIN SERVICE WATER LOOP DEMAND BRANCH 15,WATERUSE:CONNECTIONS,WATER USE CONNECTIONS 14,NODE 306,NODE 307,DHW Nodes
 Component Set,110,BRANCH,MAIN SERVICE WATER LOOP DEMAND BRANCH 16,WATERUSE:CONNECTIONS,WATER USE CONNECTIONS 15,NODE 308,NODE 309,DHW Nodes
 Component Set,111,BRANCH,MAIN SERVICE WATER LOOP DEMAND BRANCH 17,WATERUSE:CONNECTIONS,WATER USE CONNECTIONS 16,NODE 310,NODE 311,DHW Nodes
 Component Set,112,BRANCH,MAIN SERVICE WATER LOOP DEMAND BRANCH 18,WATERUSE:CONNECTIONS,WATER USE CONNECTIONS 17,NODE 312,NODE 313,DHW Nodes
 Component Set,113,BRANCH,MAIN SERVICE WATER LOOP DEMAND BRANCH 19,WATERUSE:CONNECTIONS,WATER USE CONNECTIONS 18,NODE 314,NODE 315,DHW Nodes
 Component Set,114,BRANCH,MAIN SERVICE WATER LOOP DEMAND BRANCH 20,WATERUSE:CONNECTIONS,WATER USE CONNECTIONS 19,NODE 316,NODE 317,DHW Nodes
 Component Set,115,BRANCH,MAIN SERVICE WATER LOOP DEMAND BYPASS BRANCH,PIPE:ADIABATIC,MAIN SERVICE WATER LOOP DEMAND BYPASS PIPE,MAIN SERVICE WATER LOOP DEMAND BYPASS PIPE INLET NODE,MAIN SERVICE WATER LOOP DEMAND BYPASS PIPE OUTLET NODE,Pipe Nodes
 Component Set,116,BRANCH,MAIN SERVICE WATER LOOP DEMAND OUTLET BRANCH,PIPE:ADIABATIC,PIPE ADIABATIC 11,NODE 279,NODE 270,Pipe Nodes
 Component Set,117,ZONEHVAC:AIRDISTRIBUTIONUNIT,ADU AIR TERMINAL SINGLE DUCT VAV REHEAT 1,AIRTERMINAL:SINGLEDUCT:VAV:REHEAT,AIR TERMINAL SINGLE DUCT VAV REHEAT 1,NODE 228,NODE 215,Air Nodes
 Component Set,118,ZONEHVAC:AIRDISTRIBUTIONUNIT,ADU AIR TERMINAL SINGLE DUCT VAV REHEAT 2,AIRTERMINAL:SINGLEDUCT:VAV:REHEAT,AIR TERMINAL SINGLE DUCT VAV REHEAT 2,NODE 235,NODE 233,Air Nodes
 Component Set,119,ZONEHVAC:AIRDISTRIBUTIONUNIT,ADU AIR TERMINAL SINGLE DUCT VAV REHEAT 3,AIRTERMINAL:SINGLEDUCT:VAV:REHEAT,AIR TERMINAL SINGLE DUCT VAV REHEAT 3,NODE 242,NODE 240,Air Nodes
 Component Set,120,ZONEHVAC:AIRDISTRIBUTIONUNIT,ADU AIR TERMINAL SINGLE DUCT VAV REHEAT 4,AIRTERMINAL:SINGLEDUCT:VAV:REHEAT,AIR TERMINAL SINGLE DUCT VAV REHEAT 4,NODE 249,NODE 247,Air Nodes
 Component Set,121,ZONEHVAC:AIRDISTRIBUTIONUNIT,ADU AIR TERMINAL SINGLE DUCT VAV REHEAT 5,AIRTERMINAL:SINGLEDUCT:VAV:REHEAT,AIR TERMINAL SINGLE DUCT VAV REHEAT 5,NODE 256,NODE 254,Air Nodes
 Component Set,122,ZONEHVAC:AIRDISTRIBUTIONUNIT,ADU AIR TERMINAL SINGLE DUCT VAV REHEAT 6,AIRTERMINAL:SINGLEDUCT:VAV:REHEAT,AIR TERMINAL SINGLE DUCT VAV REHEAT 6,NODE 263,NODE 261,Air Nodes
 Component Set,123,AIRTERMINAL:SINGLEDUCT:VAV:REHEAT,AIR TERMINAL SINGLE DUCT VAV REHEAT 1,COIL:HEATING:WATER,COIL HEATING WATER 3,AIR TERMINAL SINGLE DUCT VAV REHEAT 1 DAMPER OUTLET,NODE 215,Air Nodes
 Component Set,124,AIRTERMINAL:SINGLEDUCT:VAV:REHEAT,AIR TERMINAL SINGLE DUCT VAV REHEAT 2,COIL:HEATING:WATER,COIL HEATING WATER 4,AIR TERMINAL SINGLE DUCT VAV REHEAT 2 DAMPER OUTLET,NODE 233,Air Nodes
 Component Set,125,AIRTERMINAL:SINGLEDUCT:VAV:REHEAT,AIR TERMINAL SINGLE DUCT VAV REHEAT 3,COIL:HEATING:WATER,COIL HEATING WATER 5,AIR TERMINAL SINGLE DUCT VAV REHEAT 3 DAMPER OUTLET,NODE 240,Air Nodes
 Component Set,126,AIRTERMINAL:SINGLEDUCT:VAV:REHEAT,AIR TERMINAL SINGLE DUCT VAV REHEAT 4,COIL:HEATING:WATER,COIL HEATING WATER 6,AIR TERMINAL SINGLE DUCT VAV REHEAT 4 DAMPER OUTLET,NODE 247,Air Nodes
 Component Set,127,AIRTERMINAL:SINGLEDUCT:VAV:REHEAT,AIR TERMINAL SINGLE DUCT VAV REHEAT 5,COIL:HEATING:WATER,COIL HEATING WATER 7,AIR TERMINAL SINGLE DUCT VAV REHEAT 5 DAMPER OUTLET,NODE 254,Air Nodes
 Component Set,128,AIRTERMINAL:SINGLEDUCT:VAV:REHEAT,AIR TERMINAL SINGLE DUCT VAV REHEAT 6,COIL:HEATING:WATER,COIL HEATING WATER 8,AIR TERMINAL SINGLE DUCT VAV REHEAT 6 DAMPER OUTLET,NODE 261,Air Nodes
 Component Set,129,AIRLOOPHVAC:OUTDOORAIRSYSTEM,AIR LOOP HVAC OUTDOOR AIR SYSTEM 1,OUTDOORAIR:MIXER,AIR LOOP HVAC OUTDOOR AIR SYSTEM 1 OUTDOOR AIR MIXER,NODE 42,NODE 46,Air Nodes
 Component Set,130,AIRLOOPHVAC:OUTDOORAIRSYSTEM,AIR LOOP HVAC OUTDOOR AIR SYSTEM 2,OUTDOORAIR:MIXER,AIR LOOP HVAC OUTDOOR AIR SYSTEM 2 OUTDOOR AIR MIXER,NODE 111,NODE 115,Air Nodes
 Component Set,131,AIRLOOPHVAC:OUTDOORAIRSYSTEM,AIR LOOP HVAC OUTDOOR AIR SYSTEM 6,OUTDOORAIR:MIXER,AIR LOOP HVAC OUTDOOR AIR SYSTEM 6 OUTDOOR AIR MIXER,NODE 163,NODE 167,Air Nodes
 Component Set,132,AIRLOOPHVAC:OUTDOORAIRSYSTEM,AIR LOOP HVAC OUTDOOR AIR SYSTEM 5,OUTDOORAIR:MIXER,AIR LOOP HVAC OUTDOOR AIR SYSTEM 5 OUTDOOR AIR MIXER,NODE 150,NODE 154,Air Nodes
 Component Set,133,AIRLOOPHVAC:OUTDOORAIRSYSTEM,AIR LOOP HVAC OUTDOOR AIR SYSTEM 3,OUTDOORAIR:MIXER,AIR LOOP HVAC OUTDOOR AIR SYSTEM 3 OUTDOOR AIR MIXER,NODE 124,NODE 128,Air Nodes
 Component Set,134,AIRLOOPHVAC:OUTDOORAIRSYSTEM,AIR LOOP HVAC OUTDOOR AIR SYSTEM 4,OUTDOORAIR:MIXER,AIR LOOP HVAC OUTDOOR AIR SYSTEM 4 OUTDOOR AIR MIXER,NODE 137,NODE 141,Air Nodes
 Component Set,135,AIRLOOPHVAC:OUTDOORAIRSYSTEM,AIR LOOP HVAC OUTDOOR AIR SYSTEM 7,OUTDOORAIR:MIXER,AIR LOOP HVAC OUTDOOR AIR SYSTEM 7 OUTDOOR AIR MIXER,NODE 176,NODE 180,Air Nodes
 Component Set,136,AIRLOOPHVAC:OUTDOORAIRSYSTEM,AIR LOOP HVAC OUTDOOR AIR SYSTEM 8,OUTDOORAIR:MIXER,AIR LOOP HVAC OUTDOOR AIR SYSTEM 8 OUTDOOR AIR MIXER,NODE 219,NODE 223,Air Nodes
 Component Set,137,ZONEHVAC:PACKAGEDTERMINALAIRCONDITIONER,SP-CORRIDOR_FLR_3 SYS-1 FLR-3 SCH-E HPLCMT-SOUTH ZN PTAC,OUTDOORAIR:MIXER,SP-CORRIDOR_FLR_3 SYS-1 FLR-3 SCH-E HPLCMT-SOUTH ZN PTAC OA MIXER,SP-CORRIDOR_FLR_3 SYS-1 FLR-3 SCH-E HPLCMT-SOUTH ZN PTAC OA NODE,SP-CORRIDOR_FLR_3 SYS-1 FLR-3 SCH-E HPLCMT-SOUTH ZN PTAC MIXED AIR NODE,Air Nodes
 Component Set,138,ZONEHVAC:PACKAGEDTERMINALAIRCONDITIONER,SP-ROOM_1_FLR_3 SYS-1 FLR-3 SCH-F HPLCMT-WEST ZN PTAC,OUTDOORAIR:MIXER,SP-ROOM_1_FLR_3 SYS-1 FLR-3 SCH-F HPLCMT-WEST ZN PTAC OA MIXER,SP-ROOM_1_FLR_3 SYS-1 FLR-3 SCH-F HPLCMT-WEST ZN PTAC OA NODE,SP-ROOM_1_FLR_3 SYS-1 FLR-3 SCH-F HPLCMT-WEST ZN PTAC MIXED AIR NODE,Air Nodes
 Component Set,139,ZONEHVAC:PACKAGEDTERMINALAIRCONDITIONER,SP-ROOM_1_FLR_6 SYS-1 FLR-4 SCH-F HPLCMT-WEST ZN PTAC,OUTDOORAIR:MIXER,SP-ROOM_1_FLR_6 SYS-1 FLR-4 SCH-F HPLCMT-WEST ZN PTAC OA MIXER,SP-ROOM_1_FLR_6 SYS-1 FLR-4 SCH-F HPLCMT-WEST ZN PTAC OA NODE,SP-ROOM_1_FLR_6 SYS-1 FLR-4 SCH-F HPLCMT-WEST ZN PTAC MIXED AIR NODE,Air Nodes
 Component Set,140,ZONEHVAC:PACKAGEDTERMINALAIRCONDITIONER,SP-ROOM_2_FLR_3 SYS-1 FLR-3 SCH-F HPLCMT-WEST ZN PTAC,OUTDOORAIR:MIXER,SP-ROOM_2_FLR_3 SYS-1 FLR-3 SCH-F HPLCMT-WEST ZN PTAC OA MIXER,SP-ROOM_2_FLR_3 SYS-1 FLR-3 SCH-F HPLCMT-WEST ZN PTAC OA NODE,SP-ROOM_2_FLR_3 SYS-1 FLR-3 SCH-F HPLCMT-WEST ZN PTAC MIXED AIR NODE,Air Nodes
 Component Set,141,ZONEHVAC:PACKAGEDTERMINALAIRCONDITIONER,SP-ROOM_2_FLR_6 SYS-1 FLR-4 SCH-F HPLCMT-WEST ZN PTAC,OUTDOORAIR:MIXER,SP-ROOM_2_FLR_6 SYS-1 FLR-4 SCH-F HPLCMT-WEST ZN PTAC OA MIXER,SP-ROOM_2_FLR_6 SYS-1 FLR-4 SCH-F HPLCMT-WEST ZN PTAC OA NODE,SP-ROOM_2_FLR_6 SYS-1 FLR-4 SCH-F HPLCMT-WEST ZN PTAC MIXED AIR NODE,Air Nodes
 Component Set,142,ZONEHVAC:PACKAGEDTERMINALAIRCONDITIONER,SP-ROOM_3_MULT19_FLR_3 SYS-1 FLR-3 SCH-F HPLCMT-SOUTH ZN PTAC,OUTDOORAIR:MIXER,SP-ROOM_3_MULT19_FLR_3 SYS-1 FLR-3 SCH-F HPLCMT-SOUTH ZN PTAC OA MIXER,SP-ROOM_3_MULT19_FLR_3 SYS-1 FLR-3 SCH-F HPLCMT-SOUTH ZN PTAC OA NODE,SP-ROOM_3_MULT19_FLR_3 SYS-1 FLR-3 SCH-F HPLCMT-SOUTH ZN PTAC MIXED AIR NODE,Air Nodes
 Component Set,143,ZONEHVAC:PACKAGEDTERMINALAIRCONDITIONER,SP-ROOM_3_MULT9_FLR_6 SYS-1 FLR-4 SCH-F HPLCMT-SOUTH ZN PTAC,OUTDOORAIR:MIXER,SP-ROOM_3_MULT9_FLR_6 SYS-1 FLR-4 SCH-F HPLCMT-SOUTH ZN PTAC OA MIXER,SP-ROOM_3_MULT9_FLR_6 SYS-1 FLR-4 SCH-F HPLCMT-SOUTH ZN PTAC OA NODE,SP-ROOM_3_MULT9_FLR_6 SYS-1 FLR-4 SCH-F HPLCMT-SOUTH ZN PTAC MIXED AIR NODE,Air Nodes
 Component Set,144,ZONEHVAC:PACKAGEDTERMINALAIRCONDITIONER,SP-ROOM_4_MULT19_FLR_3 SYS-1 FLR-3 SCH-F HPLCMT-NORTH ZN PTAC,OUTDOORAIR:MIXER,SP-ROOM_4_MULT19_FLR_3 SYS-1 FLR-3 SCH-F HPLCMT-NORTH ZN PTAC OA MIXER,SP-ROOM_4_MULT19_FLR_3 SYS-1 FLR-3 SCH-F HPLCMT-NORTH ZN PTAC OA NODE,SP-ROOM_4_MULT19_FLR_3 SYS-1 FLR-3 SCH-F HPLCMT-NORTH ZN PTAC MIXED AIR NODE,Air Nodes
 Component Set,145,ZONEHVAC:PACKAGEDTERMINALAIRCONDITIONER,SP-ROOM_5_FLR_3 SYS-1 FLR-3 SCH-F HPLCMT-EAST ZN PTAC,OUTDOORAIR:MIXER,SP-ROOM_5_FLR_3 SYS-1 FLR-3 SCH-F HPLCMT-EAST ZN PTAC OA MIXER,SP-ROOM_5_FLR_3 SYS-1 FLR-3 SCH-F HPLCMT-EAST ZN PTAC OA NODE,SP-ROOM_5_FLR_3 SYS-1 FLR-3 SCH-F HPLCMT-EAST ZN PTAC MIXED AIR NODE,Air Nodes
 Component Set,146,ZONEHVAC:PACKAGEDTERMINALAIRCONDITIONER,SP-ROOM_6_FLR_3 SYS-1 FLR-3 SCH-F HPLCMT-EAST ZN PTAC,OUTDOORAIR:MIXER,SP-ROOM_6_FLR_3 SYS-1 FLR-3 SCH-F HPLCMT-EAST ZN PTAC OA MIXER,SP-ROOM_6_FLR_3 SYS-1 FLR-3 SCH-F HPLCMT-EAST ZN PTAC OA NODE,SP-ROOM_6_FLR_3 SYS-1 FLR-3 SCH-F HPLCMT-EAST ZN PTAC MIXED AIR NODE,Air Nodes
 Component Set,147,ZONEHVAC:PACKAGEDTERMINALAIRCONDITIONER,SP-CORRIDOR_FLR_3 SYS-1 FLR-3 SCH-E HPLCMT-SOUTH ZN PTAC,FAN:CONSTANTVOLUME,FAN CONSTANT VOLUME 2,SP-CORRIDOR_FLR_3 SYS-1 FLR-3 SCH-E HPLCMT-SOUTH ZN PTAC HEATING COIL OUTLET NODE,NODE 48,Air Nodes
 Component Set,148,ZONEHVAC:PACKAGEDTERMINALAIRCONDITIONER,SP-ROOM_1_FLR_3 SYS-1 FLR-3 SCH-F HPLCMT-WEST ZN PTAC,FAN:CONSTANTVOLUME,FAN CONSTANT VOLUME 6,SP-ROOM_1_FLR_3 SYS-1 FLR-3 SCH-F HPLCMT-WEST ZN PTAC HEATING COIL OUTLET NODE,NODE 71,Air Nodes
 Component Set,149,ZONEHVAC:PACKAGEDTERMINALAIRCONDITIONER,SP-ROOM_1_FLR_6 SYS-1 FLR-4 SCH-F HPLCMT-WEST ZN PTAC,FAN:CONSTANTVOLUME,FAN CONSTANT VOLUME 9,SP-ROOM_1_FLR_6 SYS-1 FLR-4 SCH-F HPLCMT-WEST ZN PTAC HEATING COIL OUTLET NODE,NODE 89,Air Nodes
 Component Set,150,ZONEHVAC:PACKAGEDTERMINALAIRCONDITIONER,SP-ROOM_2_FLR_3 SYS-1 FLR-3 SCH-F HPLCMT-WEST ZN PTAC,FAN:CONSTANTVOLUME,FAN CONSTANT VOLUME 7,SP-ROOM_2_FLR_3 SYS-1 FLR-3 SCH-F HPLCMT-WEST ZN PTAC HEATING COIL OUTLET NODE,NODE 77,Air Nodes
 Component Set,151,ZONEHVAC:PACKAGEDTERMINALAIRCONDITIONER,SP-ROOM_2_FLR_6 SYS-1 FLR-4 SCH-F HPLCMT-WEST ZN PTAC,FAN:CONSTANTVOLUME,FAN CONSTANT VOLUME 10,SP-ROOM_2_FLR_6 SYS-1 FLR-4 SCH-F HPLCMT-WEST ZN PTAC HEATING COIL OUTLET NODE,NODE 95,Air Nodes
 Component Set,152,ZONEHVAC:PACKAGEDTERMINALAIRCONDITIONER,SP-ROOM_3_MULT19_FLR_3 SYS-1 FLR-3 SCH-F HPLCMT-SOUTH ZN PTAC,FAN:CONSTANTVOLUME,FAN CONSTANT VOLUME 8,SP-ROOM_3_MULT19_FLR_3 SYS-1 FLR-3 SCH-F HPLCMT-SOUTH ZN PTAC HEATING COIL OUTLET NODE,NODE 83,Air Nodes
 Component Set,153,ZONEHVAC:PACKAGEDTERMINALAIRCONDITIONER,SP-ROOM_3_MULT9_FLR_6 SYS-1 FLR-4 SCH-F HPLCMT-SOUTH ZN PTAC,FAN:CONSTANTVOLUME,FAN CONSTANT VOLUME 11,SP-ROOM_3_MULT9_FLR_6 SYS-1 FLR-4 SCH-F HPLCMT-SOUTH ZN PTAC HEATING COIL OUTLET NODE,NODE 101,Air Nodes
 Component Set,154,ZONEHVAC:PACKAGEDTERMINALAIRCONDITIONER,SP-ROOM_4_MULT19_FLR_3 SYS-1 FLR-3 SCH-F HPLCMT-NORTH ZN PTAC,FAN:CONSTANTVOLUME,FAN CONSTANT VOLUME 3,SP-ROOM_4_MULT19_FLR_3 SYS-1 FLR-3 SCH-F HPLCMT-NORTH ZN PTAC HEATING COIL OUTLET NODE,NODE 53,Air Nodes
 Component Set,155,ZONEHVAC:PACKAGEDTERMINALAIRCONDITIONER,SP-ROOM_5_FLR_3 SYS-1 FLR-3 SCH-F HPLCMT-EAST ZN PTAC,FAN:CONSTANTVOLUME,FAN CONSTANT VOLUME 4,SP-ROOM_5_FLR_3 SYS-1 FLR-3 SCH-F HPLCMT-EAST ZN PTAC HEATING COIL OUTLET NODE,NODE 59,Air Nodes
 Component Set,156,ZONEHVAC:PACKAGEDTERMINALAIRCONDITIONER,SP-ROOM_6_FLR_3 SYS-1 FLR-3 SCH-F HPLCMT-EAST ZN PTAC,FAN:CONSTANTVOLUME,FAN CONSTANT VOLUME 5,SP-ROOM_6_FLR_3 SYS-1 FLR-3 SCH-F HPLCMT-EAST ZN PTAC HEATING COIL OUTLET NODE,NODE 65,Air Nodes
 Component Set,157,ZONEHVAC:PACKAGEDTERMINALAIRCONDITIONER,SP-CORRIDOR_FLR_3 SYS-1 FLR-3 SCH-E HPLCMT-SOUTH ZN PTAC,COIL:HEATING:ELECTRIC,COIL HEATING ELECTRIC 1,SP-CORRIDOR_FLR_3 SYS-1 FLR-3 SCH-E HPLCMT-SOUTH ZN PTAC COOLING COIL OUTLET NODE,SP-CORRIDOR_FLR_3 SYS-1 FLR-3 SCH-E HPLCMT-SOUTH ZN PTAC HEATING COIL OUTLET NODE,Air Nodes
 Component Set,158,ZONEHVAC:PACKAGEDTERMINALAIRCONDITIONER,SP-ROOM_1_FLR_3 SYS-1 FLR-3 SCH-F HPLCMT-WEST ZN PTAC,COIL:HEATING:ELECTRIC,COIL HEATING ELECTRIC 5,SP-ROOM_1_FLR_3 SYS-1 FLR-3 SCH-F HPLCMT-WEST ZN PTAC COOLING COIL OUTLET NODE,SP-ROOM_1_FLR_3 SYS-1 FLR-3 SCH-F HPLCMT-WEST ZN PTAC HEATING COIL OUTLET NODE,Air Nodes
 Component Set,159,ZONEHVAC:PACKAGEDTERMINALAIRCONDITIONER,SP-ROOM_1_FLR_6 SYS-1 FLR-4 SCH-F HPLCMT-WEST ZN PTAC,COIL:HEATING:ELECTRIC,COIL HEATING ELECTRIC 8,SP-ROOM_1_FLR_6 SYS-1 FLR-4 SCH-F HPLCMT-WEST ZN PTAC COOLING COIL OUTLET NODE,SP-ROOM_1_FLR_6 SYS-1 FLR-4 SCH-F HPLCMT-WEST ZN PTAC HEATING COIL OUTLET NODE,Air Nodes
[...]
 Non-Parent Node Connection,NODE 101,FAN:CONSTANTVOLUME,FAN CONSTANT VOLUME 11,Outlet,1
 Non-Parent Node Connection,SP-ROOM_4_MULT19_FLR_3 SYS-1 FLR-3 SCH-F HPLCMT-NORTH ZN PTAC HEATING COIL OUTLET NODE,FAN:CONSTANTVOLUME,FAN CONSTANT VOLUME 3,Inlet,1
 Non-Parent Node Connection,NODE 53,FAN:CONSTANTVOLUME,FAN CONSTANT VOLUME 3,Outlet,1
 Non-Parent Node Connection,SP-ROOM_5_FLR_3 SYS-1 FLR-3 SCH-F HPLCMT-EAST ZN PTAC HEATING COIL OUTLET NODE,FAN:CONSTANTVOLUME,FAN CONSTANT VOLUME 4,Inlet,1
 Non-Parent Node Connection,NODE 59,FAN:CONSTANTVOLUME,FAN CONSTANT VOLUME 4,Outlet,1
 Non-Parent Node Connection,SP-ROOM_6_FLR_3 SYS-1 FLR-3 SCH-F HPLCMT-EAST ZN PTAC HEATING COIL OUTLET NODE,FAN:CONSTANTVOLUME,FAN CONSTANT VOLUME 5,Inlet,1
 Non-Parent Node Connection,NODE 65,FAN:CONSTANTVOLUME,FAN CONSTANT VOLUME 5,Outlet,1
 Non-Parent Node Connection,NODE 44,FAN:CONSTANTVOLUME,FAN CONSTANT VOLUME 1,Inlet,1
 Non-Parent Node Connection,NODE 37,FAN:CONSTANTVOLUME,FAN CONSTANT VOLUME 1,Outlet,1
 Non-Parent Node Connection,NODE 113,FAN:CONSTANTVOLUME,FAN CONSTANT VOLUME 12,Inlet,1
 Non-Parent Node Connection,NODE 107,FAN:CONSTANTVOLUME,FAN CONSTANT VOLUME 12,Outlet,1
 Non-Parent Node Connection,NODE 165,FAN:CONSTANTVOLUME,FAN CONSTANT VOLUME 16,Inlet,1
 Non-Parent Node Connection,NODE 159,FAN:CONSTANTVOLUME,FAN CONSTANT VOLUME 16,Outlet,1
 Non-Parent Node Connection,NODE 152,FAN:CONSTANTVOLUME,FAN CONSTANT VOLUME 15,Inlet,1
 Non-Parent Node Connection,NODE 146,FAN:CONSTANTVOLUME,FAN CONSTANT VOLUME 15,Outlet,1
 Non-Parent Node Connection,NODE 126,FAN:CONSTANTVOLUME,FAN CONSTANT VOLUME 13,Inlet,1
 Non-Parent Node Connection,NODE 120,FAN:CONSTANTVOLUME,FAN CONSTANT VOLUME 13,Outlet,1
 Non-Parent Node Connection,NODE 139,FAN:CONSTANTVOLUME,FAN CONSTANT VOLUME 14,Inlet,1
 Non-Parent Node Connection,NODE 133,FAN:CONSTANTVOLUME,FAN CONSTANT VOLUME 14,Outlet,1
 Non-Parent Node Connection,NODE 178,FAN:CONSTANTVOLUME,FAN CONSTANT VOLUME 17,Inlet,1
 Non-Parent Node Connection,NODE 172,FAN:CONSTANTVOLUME,FAN CONSTANT VOLUME 17,Outlet,1
 Non-Parent Node Connection,NODE 211,FAN:VARIABLEVOLUME,SYS6 RETURN FAN,Inlet,1
 Non-Parent Node Connection,NODE 224,FAN:VARIABLEVOLUME,SYS6 RETURN FAN,Outlet,1
 Non-Parent Node Connection,NODE 221,FAN:VARIABLEVOLUME,SYS6 SUPPLY FAN,Inlet,1
 Non-Parent Node Connection,NODE 212,FAN:VARIABLEVOLUME,SYS6 SUPPLY FAN,Outlet,1
 Non-Parent Node Connection,SP-CORRIDOR_FLR_3 SYS-1 FLR-3 SCH-E HPLCMT-SOUTH ZN PTAC COOLING COIL OUTLET NODE,COIL:HEATING:ELECTRIC,COIL HEATING ELECTRIC 1,Inlet,1
 Non-Parent Node Connection,SP-CORRIDOR_FLR_3 SYS-1 FLR-3 SCH-E HPLCMT-SOUTH ZN PTAC HEATING COIL OUTLET NODE,COIL:HEATING:ELECTRIC,COIL HEATING ELECTRIC 1,Outlet,1
 Non-Parent Node Connection,SP-ROOM_1_FLR_3 SYS-1 FLR-3 SCH-F HPLCMT-WEST ZN PTAC COOLING COIL OUTLET NODE,COIL:HEATING:ELECTRIC,COIL HEATING ELECTRIC 5,Inlet,1
 Non-Parent Node Connection,SP-ROOM_1_FLR_3 SYS-1 FLR-3 SCH-F HPLCMT-WEST ZN PTAC HEATING COIL OUTLET NODE,COIL:HEATING:ELECTRIC,COIL HEATING ELECTRIC 5,Outlet,1
 Non-Parent Node Connection,SP-ROOM_1_FLR_6 SYS-1 FLR-4 SCH-F HPLCMT-WEST ZN PTAC COOLING COIL OUTLET NODE,COIL:HEATING:ELECTRIC,COIL HEATING ELECTRIC 8,Inlet,1
 Non-Parent Node Connection,SP-ROOM_1_FLR_6 SYS-1 FLR-4 SCH-F HPLCMT-WEST ZN PTAC HEATING COIL OUTLET NODE,COIL:HEATING:ELECTRIC,COIL HEATING ELECTRIC 8,Outlet,1
 Non-Parent Node Connection,SP-ROOM_2_FLR_3 SYS-1 FLR-3 SCH-F HPLCMT-WEST ZN PTAC COOLING COIL OUTLET NODE,COIL:HEATING:ELECTRIC,COIL HEATING ELECTRIC 6,Inlet,1
 Non-Parent Node Connection,SP-ROOM_2_FLR_3 SYS-1 FLR-3 SCH-F HPLCMT-WEST ZN PTAC HEATING COIL OUTLET NODE,COIL:HEATING:ELECTRIC,COIL HEATING ELECTRIC 6,Outlet,1
 Non-Parent Node Connection,SP-ROOM_2_FLR_6 SYS-1 FLR-4 SCH-F HPLCMT-WEST ZN PTAC COOLING COIL OUTLET NODE,COIL:HEATING:ELECTRIC,COIL HEATING ELECTRIC 9,Inlet,1
 Non-Parent Node Connection,SP-ROOM_2_FLR_6 SYS-1 FLR-4 SCH-F HPLCMT-WEST ZN PTAC HEATING COIL OUTLET NODE,COIL:HEATING:ELECTRIC,COIL HEATING ELECTRIC 9,Outlet,1
 Non-Parent Node Connection,SP-ROOM_3_MULT19_FLR_3 SYS-1 FLR-3 SCH-F HPLCMT-SOUTH ZN PTAC COOLING COIL OUTLET NODE,COIL:HEATING:ELECTRIC,COIL HEATING ELECTRIC 7,Inlet,1
 Non-Parent Node Connection,SP-ROOM_3_MULT19_FLR_3 SYS-1 FLR-3 SCH-F HPLCMT-SOUTH ZN PTAC HEATING COIL OUTLET NODE,COIL:HEATING:ELECTRIC,COIL HEATING ELECTRIC 7,Outlet,1
 Non-Parent Node Connection,SP-ROOM_3_MULT9_FLR_6 SYS-1 FLR-4 SCH-F HPLCMT-SOUTH ZN PTAC COOLING COIL OUTLET NODE,COIL:HEATING:ELECTRIC,COIL HEATING ELECTRIC 10,Inlet,1
 Non-Parent Node Connection,SP-ROOM_3_MULT9_FLR_6 SYS-1 FLR-4 SCH-F HPLCMT-SOUTH ZN PTAC HEATING COIL OUTLET NODE,COIL:HEATING:ELECTRIC,COIL HEATING ELECTRIC 10,Outlet,1
 Non-Parent Node Connection,SP-ROOM_4_MULT19_FLR_3 SYS-1 FLR-3 SCH-F HPLCMT-NORTH ZN PTAC COOLING COIL OUTLET NODE,COIL:HEATING:ELECTRIC,COIL HEATING ELECTRIC 2,Inlet,1
 Non-Parent Node Connection,SP-ROOM_4_MULT19_FLR_3 SYS-1 FLR-3 SCH-F HPLCMT-NORTH ZN PTAC HEATING COIL OUTLET NODE,COIL:HEATING:ELECTRIC,COIL HEATING ELECTRIC 2,Outlet,1
 Non-Parent Node Connection,SP-ROOM_5_FLR_3 SYS-1 FLR-3 SCH-F HPLCMT-EAST ZN PTAC COOLING COIL OUTLET NODE,COIL:HEATING:ELECTRIC,COIL HEATING ELECTRIC 3,Inlet,1
 Non-Parent Node Connection,SP-ROOM_5_FLR_3 SYS-1 FLR-3 SCH-F HPLCMT-EAST ZN PTAC HEATING COIL OUTLET NODE,COIL:HEATING:ELECTRIC,COIL HEATING ELECTRIC 3,Outlet,1
 Non-Parent Node Connection,SP-ROOM_6_FLR_3 SYS-1 FLR-3 SCH-F HPLCMT-EAST ZN PTAC COOLING COIL OUTLET NODE,COIL:HEATING:ELECTRIC,COIL HEATING ELECTRIC 4,Inlet,1
 Non-Parent Node Connection,SP-ROOM_6_FLR_3 SYS-1 FLR-3 SCH-F HPLCMT-EAST ZN PTAC HEATING COIL OUTLET NODE,COIL:HEATING:ELECTRIC,COIL HEATING ELECTRIC 4,Outlet,1
 Non-Parent Node Connection,NODE 114,COIL:HEATING:FUEL,COIL HEATING GAS 1,Inlet,1
 Non-Parent Node Connection,NODE 113,COIL:HEATING:FUEL,COIL HEATING GAS 1,Outlet,1
 Non-Parent Node Connection,NODE 113,COIL:HEATING:FUEL,COIL HEATING GAS 1,Sensor,1
 Non-Parent Node Connection,NODE 166,COIL:HEATING:FUEL,COIL HEATING GAS 5,Inlet,1
 Non-Parent Node Connection,NODE 165,COIL:HEATING:FUEL,COIL HEATING GAS 5,Outlet,1
 Non-Parent Node Connection,NODE 165,COIL:HEATING:FUEL,COIL HEATING GAS 5,Sensor,1
 Non-Parent Node Connection,NODE 153,COIL:HEATING:FUEL,COIL HEATING GAS 4,Inlet,1
 Non-Parent Node Connection,NODE 152,COIL:HEATING:FUEL,COIL HEATING GAS 4,Outlet,1
 Non-Parent Node Connection,NODE 152,COIL:HEATING:FUEL,COIL HEATING GAS 4,Sensor,1
 Non-Parent Node Connection,NODE 127,COIL:HEATING:FUEL,COIL HEATING GAS 2,Inlet,1
 Non-Parent Node Connection,NODE 126,COIL:HEATING:FUEL,COIL HEATING GAS 2,Outlet,1
 Non-Parent Node Connection,NODE 126,COIL:HEATING:FUEL,COIL HEATING GAS 2,Sensor,1
 Non-Parent Node Connection,NODE 140,COIL:HEATING:FUEL,COIL HEATING GAS 3,Inlet,1
 Non-Parent Node Connection,NODE 139,COIL:HEATING:FUEL,COIL HEATING GAS 3,Outlet,1
 Non-Parent Node Connection,NODE 139,COIL:HEATING:FUEL,COIL HEATING GAS 3,Sensor,1
 Non-Parent Node Connection,NODE 179,COIL:HEATING:FUEL,COIL HEATING GAS 6,Inlet,1
 Non-Parent Node Connection,NODE 178,COIL:HEATING:FUEL,COIL HEATING GAS 6,Outlet,1
 Non-Parent Node Connection,NODE 178,COIL:HEATING:FUEL,COIL HEATING GAS 6,Sensor,1
 Non-Parent Node Connection,SP-CORRIDOR_FLR_3 SYS-1 FLR-3 SCH-E HPLCMT-SOUTH ZN PTAC MIXED AIR NODE,COIL:COOLING:DX:SINGLESPEED,COIL COOLING DX SINGLE SPEED 2,Inlet,1
 Non-Parent Node Connection,SP-CORRIDOR_FLR_3 SYS-1 FLR-3 SCH-E HPLCMT-SOUTH ZN PTAC COOLING COIL OUTLET NODE,COIL:COOLING:DX:SINGLESPEED,COIL COOLING DX SINGLE SPEED 2,Outlet,1
 Non-Parent Node Connection,SP-ROOM_1_FLR_3 SYS-1 FLR-3 SCH-F HPLCMT-WEST ZN PTAC MIXED AIR NODE,COIL:COOLING:DX:SINGLESPEED,COIL COOLING DX SINGLE SPEED 6,Inlet,1
 Non-Parent Node Connection,SP-ROOM_1_FLR_3 SYS-1 FLR-3 SCH-F HPLCMT-WEST ZN PTAC COOLING COIL OUTLET NODE,COIL:COOLING:DX:SINGLESPEED,COIL COOLING DX SINGLE SPEED 6,Outlet,1
 Non-Parent Node Connection,SP-ROOM_1_FLR_6 SYS-1 FLR-4 SCH-F HPLCMT-WEST ZN PTAC MIXED AIR NODE,COIL:COOLING:DX:SINGLESPEED,COIL COOLING DX SINGLE SPEED 9,Inlet,1
 Non-Parent Node Connection,SP-ROOM_1_FLR_6 SYS-1 FLR-4 SCH-F HPLCMT-WEST ZN PTAC COOLING COIL OUTLET NODE,COIL:COOLING:DX:SINGLESPEED,COIL COOLING DX SINGLE SPEED 9,Outlet,1
 Non-Parent Node Connection,SP-ROOM_2_FLR_3 SYS-1 FLR-3 SCH-F HPLCMT-WEST ZN PTAC MIXED AIR NODE,COIL:COOLING:DX:SINGLESPEED,COIL COOLING DX SINGLE SPEED 7,Inlet,1
 Non-Parent Node Connection,SP-ROOM_2_FLR_3 SYS-1 FLR-3 SCH-F HPLCMT-WEST ZN PTAC COOLING COIL OUTLET NODE,COIL:COOLING:DX:SINGLESPEED,COIL COOLING DX SINGLE SPEED 7,Outlet,1
 Non-Parent Node Connection,SP-ROOM_2_FLR_6 SYS-1 FLR-4 SCH-F HPLCMT-WEST ZN PTAC MIXED AIR NODE,COIL:COOLING:DX:SINGLESPEED,COIL COOLING DX SINGLE SPEED 10,Inlet,1
 Non-Parent Node Connection,SP-ROOM_2_FLR_6 SYS-1 FLR-4 SCH-F HPLCMT-WEST ZN PTAC COOLING COIL OUTLET NODE,COIL:COOLING:DX:SINGLESPEED,COIL COOLING DX SINGLE SPEED 10,Outlet,1
 Non-Parent Node Connection,SP-ROOM_3_MULT19_FLR_3 SYS-1 FLR-3 SCH-F HPLCMT-SOUTH ZN PTAC MIXED AIR NODE,COIL:COOLING:DX:SINGLESPEED,COIL COOLING DX SINGLE SPEED 8,Inlet,1
 Non-Parent Node Connection,SP-ROOM_3_MULT19_FLR_3 SYS-1 FLR-3 SCH-F HPLCMT-SOUTH ZN PTAC COOLING COIL OUTLET NODE,COIL:COOLING:DX:SINGLESPEED,COIL COOLING DX SINGLE SPEED 8,Outlet,1
 Non-Parent Node Connection,SP-ROOM_3_MULT9_FLR_6 SYS-1 FLR-4 SCH-F HPLCMT-SOUTH ZN PTAC MIXED AIR NODE,COIL:COOLING:DX:SINGLESPEED,COIL COOLING DX SINGLE SPEED 11,Inlet,1
 Non-Parent Node Connection,SP-ROOM_3_MULT9_FLR_6 SYS-1 FLR-4 SCH-F HPLCMT-SOUTH ZN PTAC COOLING COIL OUTLET NODE,COIL:COOLING:DX:SINGLESPEED,COIL COOLING DX SINGLE SPEED 11,Outlet,1
 Non-Parent Node Connection,SP-ROOM_4_MULT19_FLR_3 SYS-1 FLR-3 SCH-F HPLCMT-NORTH ZN PTAC MIXED AIR NODE,COIL:COOLING:DX:SINGLESPEED,COIL COOLING DX SINGLE SPEED 3,Inlet,1
 Non-Parent Node Connection,SP-ROOM_4_MULT19_FLR_3 SYS-1 FLR-3 SCH-F HPLCMT-NORTH ZN PTAC COOLING COIL OUTLET NODE,COIL:COOLING:DX:SINGLESPEED,COIL COOLING DX SINGLE SPEED 3,Outlet,1
 Non-Parent Node Connection,SP-ROOM_5_FLR_3 SYS-1 FLR-3 SCH-F HPLCMT-EAST ZN PTAC MIXED AIR NODE,COIL:COOLING:DX:SINGLESPEED,COIL COOLING DX SINGLE SPEED 4,Inlet,1
 Non-Parent Node Connection,SP-ROOM_5_FLR_3 SYS-1 FLR-3 SCH-F HPLCMT-EAST ZN PTAC COOLING COIL OUTLET NODE,COIL:COOLING:DX:SINGLESPEED,COIL COOLING DX SINGLE SPEED 4,Outlet,1
 Non-Parent Node Connection,SP-ROOM_6_FLR_3 SYS-1 FLR-3 SCH-F HPLCMT-EAST ZN PTAC MIXED AIR NODE,COIL:COOLING:DX:SINGLESPEED,COIL COOLING DX SINGLE SPEED 5,Inlet,1
 Non-Parent Node Connection,SP-ROOM_6_FLR_3 SYS-1 FLR-3 SCH-F HPLCMT-EAST ZN PTAC COOLING COIL OUTLET NODE,COIL:COOLING:DX:SINGLESPEED,COIL COOLING DX SINGLE SPEED 5,Outlet,1
 Non-Parent Node Connection,NODE 46,COIL:COOLING:DX:SINGLESPEED,COIL COOLING DX SINGLE SPEED 1,Inlet,1
 Non-Parent Node Connection,NODE 45,COIL:COOLING:DX:SINGLESPEED,COIL COOLING DX SINGLE SPEED 1,Outlet,1
 Non-Parent Node Connection,NODE 115,COIL:COOLING:DX:SINGLESPEED,COIL COOLING DX SINGLE SPEED 12,Inlet,1
 Non-Parent Node Connection,NODE 114,COIL:COOLING:DX:SINGLESPEED,COIL COOLING DX SINGLE SPEED 12,Outlet,1
 Non-Parent Node Connection,NODE 167,COIL:COOLING:DX:SINGLESPEED,COIL COOLING DX SINGLE SPEED 16,Inlet,1
 Non-Parent Node Connection,NODE 166,COIL:COOLING:DX:SINGLESPEED,COIL COOLING DX SINGLE SPEED 16,Outlet,1
 Non-Parent Node Connection,NODE 154,COIL:COOLING:DX:SINGLESPEED,COIL COOLING DX SINGLE SPEED 15,Inlet,1
 Non-Parent Node Connection,NODE 153,COIL:COOLING:DX:SINGLESPEED,COIL COOLING DX SINGLE SPEED 15,Outlet,1
 Non-Parent Node Connection,NODE 128,COIL:COOLING:DX:SINGLESPEED,COIL COOLING DX SINGLE SPEED 13,Inlet,1
 Non-Parent Node Connection,NODE 127,COIL:COOLING:DX:SINGLESPEED,COIL COOLING DX SINGLE SPEED 13,Outlet,1
 Non-Parent Node Connection,NODE 141,COIL:COOLING:DX:SINGLESPEED,COIL COOLING DX SINGLE SPEED 14,Inlet,1
 Non-Parent Node Connection,NODE 140,COIL:COOLING:DX:SINGLESPEED,COIL COOLING DX SINGLE SPEED 14,Outlet,1
 Non-Parent Node Connection,NODE 180,COIL:COOLING:DX:SINGLESPEED,COIL COOLING DX SINGLE SPEED 17,Inlet,1
 Non-Parent Node Connection,NODE 179,COIL:COOLING:DX:SINGLESPEED,COIL COOLING DX SINGLE SPEED 17,Outlet,1
 Non-Parent Node Connection,NODE 39,AIRLOOPHVAC:ZONEMIXER,AIR LOOP HVAC ZONE MIXER 1,Outlet,1
 Non-Parent Node Connection,NODE 51,AIRLOOPHVAC:ZONEMIXER,AIR LOOP HVAC ZONE MIXER 1,Inlet,1
 Non-Parent Node Connection,NODE 57,AIRLOOPHVAC:ZONEMIXER,AIR LOOP HVAC ZONE MIXER 1,Inlet,1
 Non-Parent Node Connection,NODE 63,AIRLOOPHVAC:ZONEMIXER,AIR LOOP HVAC ZONE MIXER 1,Inlet,1
 Non-Parent Node Connection,NODE 69,AIRLOOPHVAC:ZONEMIXER,AIR LOOP HVAC ZONE MIXER 1,Inlet,1
 Non-Parent Node Connection,NODE 75,AIRLOOPHVAC:ZONEMIXER,AIR LOOP HVAC ZONE MIXER 1,Inlet,1
 Non-Parent Node Connection,NODE 81,AIRLOOPHVAC:ZONEMIXER,AIR LOOP HVAC ZONE MIXER 1,Inlet,1
 Non-Parent Node Connection,NODE 87,AIRLOOPHVAC:ZONEMIXER,AIR LOOP HVAC ZONE MIXER 1,Inlet,1
 Non-Parent Node Connection,NODE 93,AIRLOOPHVAC:ZONEMIXER,AIR LOOP HVAC ZONE MIXER 1,Inlet,1
 Non-Parent Node Connection,NODE 99,AIRLOOPHVAC:ZONEMIXER,AIR LOOP HVAC ZONE MIXER 1,Inlet,1
 Non-Parent Node Connection,NODE 105,AIRLOOPHVAC:ZONEMIXER,AIR LOOP HVAC ZONE MIXER 1,Inlet,1
 Non-Parent Node Connection,NODE 109,AIRLOOPHVAC:ZONEMIXER,AIR LOOP HVAC ZONE MIXER 2,Outlet,1
 Non-Parent Node Connection,NODE 116,AIRLOOPHVAC:ZONEMIXER,AIR LOOP HVAC ZONE MIXER 2,Inlet,1
 Non-Parent Node Connection,NODE 161,AIRLOOPHVAC:ZONEMIXER,AIR LOOP HVAC ZONE MIXER 6,Outlet,1
 Non-Parent Node Connection,NODE 168,AIRLOOPHVAC:ZONEMIXER,AIR LOOP HVAC ZONE MIXER 6,Inlet,1
 Non-Parent Node Connection,NODE 148,AIRLOOPHVAC:ZONEMIXER,AIR LOOP HVAC ZONE MIXER 5,Outlet,1
 Non-Parent Node Connection,NODE 155,AIRLOOPHVAC:ZONEMIXER,AIR LOOP HVAC ZONE MIXER 5,Inlet,1
 Non-Parent Node Connection,NODE 122,AIRLOOPHVAC:ZONEMIXER,AIR LOOP HVAC ZONE MIXER 3,Outlet,1
 Non-Parent Node Connection,NODE 129,AIRLOOPHVAC:ZONEMIXER,AIR LOOP HVAC ZONE MIXER 3,Inlet,1
 Non-Parent Node Connection,NODE 135,AIRLOOPHVAC:ZONEMIXER,AIR LOOP HVAC ZONE MIXER 4,Outlet,1
 Non-Parent Node Connection,NODE 142,AIRLOOPHVAC:ZONEMIXER,AIR LOOP HVAC ZONE MIXER 4,Inlet,1
 Non-Parent Node Connection,NODE 174,AIRLOOPHVAC:ZONEMIXER,AIR LOOP HVAC ZONE MIXER 7,Outlet,1
 Non-Parent Node Connection,NODE 181,AIRLOOPHVAC:ZONEMIXER,AIR LOOP HVAC ZONE MIXER 7,Inlet,1
 Non-Parent Node Connection,NODE 214,AIRLOOPHVAC:ZONEMIXER,AIR LOOP HVAC ZONE MIXER 8,Outlet,1
 Non-Parent Node Connection,NODE 227,AIRLOOPHVAC:ZONEMIXER,AIR LOOP HVAC ZONE MIXER 8,Inlet,1
 Non-Parent Node Connection,NODE 234,AIRLOOPHVAC:ZONEMIXER,AIR LOOP HVAC ZONE MIXER 8,Inlet,1
 Non-Parent Node Connection,NODE 241,AIRLOOPHVAC:ZONEMIXER,AIR LOOP HVAC ZONE MIXER 8,Inlet,1
 Non-Parent Node Connection,NODE 248,AIRLOOPHVAC:ZONEMIXER,AIR LOOP HVAC ZONE MIXER 8,Inlet,1
 Non-Parent Node Connection,NODE 255,AIRLOOPHVAC:ZONEMIXER,AIR LOOP HVAC ZONE MIXER 8,Inlet,1
 Non-Parent Node Connection,NODE 262,AIRLOOPHVAC:ZONEMIXER,AIR LOOP HVAC ZONE MIXER 8,Inlet,1
 Non-Parent Node Connection,NODE 46,CONTROLLER:OUTDOORAIR,CONTROLLER OUTDOOR AIR 1,Sensor,1
 Non-Parent Node Connection,NODE 42,CONTROLLER:OUTDOORAIR,CONTROLLER OUTDOOR AIR 1,Actuator,1
 Non-Parent Node Connection,NODE 43,CONTROLLER:OUTDOORAIR,CONTROLLER OUTDOOR AIR 1,Actuator,1
 Non-Parent Node Connection,NODE 36,CONTROLLER:OUTDOORAIR,CONTROLLER OUTDOOR AIR 1,Sensor,1
 Non-Parent Node Connection,NODE 115,CONTROLLER:OUTDOORAIR,CONTROLLER OUTDOOR AIR 2,Sensor,1
 Non-Parent Node Connection,NODE 111,CONTROLLER:OUTDOORAIR,CONTROLLER OUTDOOR AIR 2,Actuator,1
 Non-Parent Node Connection,NODE 112,CONTROLLER:OUTDOORAIR,CONTROLLER OUTDOOR AIR 2,Actuator,1
 Non-Parent Node Connection,NODE 106,CONTROLLER:OUTDOORAIR,CONTROLLER OUTDOOR AIR 2,Sensor,1
 Non-Parent Node Connection,NODE 167,CONTROLLER:OUTDOORAIR,CONTROLLER OUTDOOR AIR 6,Sensor,1
 Non-Parent Node Connection,NODE 163,CONTROLLER:OUTDOORAIR,CONTROLLER OUTDOOR AIR 6,Actuator,1
 Non-Parent Node Connection,NODE 164,CONTROLLER:OUTDOORAIR,CONTROLLER OUTDOOR AIR 6,Actuator,1
 Non-Parent Node Connection,NODE 158,CONTROLLER:OUTDOORAIR,CONTROLLER OUTDOOR AIR 6,Sensor,1
 Non-Parent Node Connection,NODE 154,CONTROLLER:OUTDOORAIR,CONTROLLER OUTDOOR AIR 5,Sensor,1
 Non-Parent Node Connection,NODE 150,CONTROLLER:OUTDOORAIR,CONTROLLER OUTDOOR AIR 5,Actuator,1
 Non-Parent Node Connection,NODE 151,CONTROLLER:OUTDOORAIR,CONTROLLER OUTDOOR AIR 5,Actuator,1
 Non-Parent Node Connection,NODE 145,CONTROLLER:OUTDOORAIR,CONTROLLER OUTDOOR AIR 5,Sensor,1
 Non-Parent Node Connection,NODE 128,CONTROLLER:OUTDOORAIR,CONTROLLER OUTDOOR AIR 3,Sensor,1
 Non-Parent Node Connection,NODE 124,CONTROLLER:OUTDOORAIR,CONTROLLER OUTDOOR AIR 3,Actuator,1
 Non-Parent Node Connection,NODE 125,CONTROLLER:OUTDOORAIR,CONTROLLER OUTDOOR AIR 3,Actuator,1
 Non-Parent Node Connection,NODE 119,CONTROLLER:OUTDOORAIR,CONTROLLER OUTDOOR AIR 3,Sensor,1
 Non-Parent Node Connection,NODE 141,CONTROLLER:OUTDOORAIR,CONTROLLER OUTDOOR AIR 4,Sensor,1
 Non-Parent Node Connection,NODE 137,CONTROLLER:OUTDOORAIR,CONTROLLER OUTDOOR AIR 4,Actuator,1
 Non-Parent Node Connection,NODE 138,CONTROLLER:OUTDOORAIR,CONTROLLER OUTDOOR AIR 4,Actuator,1
 Non-Parent Node Connection,NODE 132,CONTROLLER:OUTDOORAIR,CONTROLLER OUTDOOR AIR 4,Sensor,1
 Non-Parent Node Connection,NODE 180,CONTROLLER:OUTDOORAIR,CONTROLLER OUTDOOR AIR 7,Sensor,1
 Non-Parent Node Connection,NODE 176,CONTROLLER:OUTDOORAIR,CONTROLLER OUTDOOR AIR 7,Actuator,1
 Non-Parent Node Connection,NODE 177,CONTROLLER:OUTDOORAIR,CONTROLLER OUTDOOR AIR 7,Actuator,1
 Non-Parent Node Connection,NODE 171,CONTROLLER:OUTDOORAIR,CONTROLLER OUTDOOR AIR 7,Sensor,1
 Non-Parent Node Connection,NODE 223,CONTROLLER:OUTDOORAIR,CONTROLLER OUTDOOR AIR 8,Sensor,1
 Non-Parent Node Connection,NODE 219,CONTROLLER:OUTDOORAIR,CONTROLLER OUTDOOR AIR 8,Actuator,1
 Non-Parent Node Connection,NODE 220,CONTROLLER:OUTDOORAIR,CONTROLLER OUTDOOR AIR 8,Actuator,1
 Non-Parent Node Connection,NODE 224,CONTROLLER:OUTDOORAIR,CONTROLLER OUTDOOR AIR 8,Sensor,1
 Non-Parent Node Connection,NODE 186,CHILLER:ELECTRIC:EIR,PRIMARY CHILLER WATERCOOLED SCROLL,Inlet,1
 Non-Parent Node Connection,NODE 191,CHILLER:ELECTRIC:EIR,PRIMARY CHILLER WATERCOOLED SCROLL,Outlet,1
 Non-Parent Node Connection,NODE 202,CHILLER:ELECTRIC:EIR,PRIMARY CHILLER WATERCOOLED SCROLL,Inlet,2
 Non-Parent Node Connection,NODE 208,CHILLER:ELECTRIC:EIR,PRIMARY CHILLER WATERCOOLED SCROLL,Outlet,2
 Non-Parent Node Connection,NODE 192,CHILLER:ELECTRIC:EIR,SECONDARY CHILLER WATERCOOLED SCROLL,Inlet,1
 Non-Parent Node Connection,NODE 193,CHILLER:ELECTRIC:EIR,SECONDARY CHILLER WATERCOOLED SCROLL,Outlet,1
 Non-Parent Node Connection,NODE 209,CHILLER:ELECTRIC:EIR,SECONDARY CHILLER WATERCOOLED SCROLL,Inlet,2
 Non-Parent Node Connection,NODE 210,CHILLER:ELECTRIC:EIR,SECONDARY CHILLER WATERCOOLED SCROLL,Outlet,2
 Non-Parent Node Connection,NODE 199,COOLINGTOWER:SINGLESPEED,COOLING TOWER SINGLE SPEED 1,Inlet,1
 Non-Parent Node Connection,NODE 204,COOLINGTOWER:SINGLESPEED,COOLING TOWER SINGLE SPEED 1,Outlet,1
 Non-Parent Node Connection,NODE 25,BOILER:HOTWATER,PRIMARY BOILER,Inlet,1
 Non-Parent Node Connection,NODE 30,BOILER:HOTWATER,PRIMARY BOILER,Outlet,1
 Non-Parent Node Connection,NODE 31,BOILER:HOTWATER,SECONDARY BOILER,Inlet,1
 Non-Parent Node Connection,NODE 32,BOILER:HOTWATER,SECONDARY BOILER,Outlet,1
 Non-Parent Node Connection,NODE 23,PUMP:VARIABLESPEED,PUMP VARIABLE SPEED 1,Inlet,1
 Non-Parent Node Connection,NODE 29,PUMP:VARIABLESPEED,PUMP VARIABLE SPEED 1,Outlet,1
 Non-Parent Node Connection,NODE 184,PUMP:CONSTANTSPEED,PUMP CONSTANT SPEED 1,Inlet,1
 Non-Parent Node Connection,NODE 190,PUMP:CONSTANTSPEED,PUMP CONSTANT SPEED 1,Outlet,1
 Non-Parent Node Connection,NODE 197,PUMP:CONSTANTSPEED,PUMP CONSTANT SPEED 2,Inlet,1
 Non-Parent Node Connection,NODE 203,PUMP:CONSTANTSPEED,PUMP CONSTANT SPEED 2,Outlet,1
 Non-Parent Node Connection,NODE 266,PUMP:CONSTANTSPEED,SERVICE WATER LOOP PUMP,Inlet,1
 Non-Parent Node Connection,NODE 272,PUMP:CONSTANTSPEED,SERVICE WATER LOOP PUMP,Outlet,1
