Program Version,EnergyPlus, Version 8.9.0-eba93e8e1b, YMD=2018.09.18 17:20
! <Version>, Version ID
 Version, 8.9
! <Timesteps per Hour>, #TimeSteps, Minutes per TimeStep {minutes}
 Timesteps per Hour,  6, 10
! <System Convergence Limits>, Minimum System TimeStep {minutes}, Max HVAC Iterations, Minimum Plant Iterations, Maximum Plant Iterations
 System Convergence Limits, 1, 20, 2, 8
! <Simulation Control>, Do Zone Sizing, Do System Sizing, Do Plant Sizing, Do Design Days, Do Weather Simulation, Do HVAC Sizing Simulation
 Simulation Control, Yes, Yes, Yes, Yes, No, No
! <Output Reporting Tolerances>, Tolerance for Time Heating Setpoint Not Met, Tolerance for Zone Cooling Setpoint Not Met Time
 Output Reporting Tolerances, 1.000, 1.000, 
! <Site:GroundTemperature:BuildingSurface>,Jan{C},Feb{C},Mar{C},Apr{C},May{C},Jun{C},Jul{C},Aug{C},Sep{C},Oct{C},Nov{C},Dec{C}
 Site:GroundTemperature:BuildingSurface,  19.53,  19.50,  19.54,  19.60,  20.00,  21.64,  22.23,  22.38,  21.45,  20.12,  19.80,  19.63
! <Site:GroundTemperature:FCfactorMethod>,Jan{C},Feb{C},Mar{C},Apr{C},May{C},Jun{C},Jul{C},Aug{C},Sep{C},Oct{C},Nov{C},Dec{C}
 Site:GroundTemperature:FCfactorMethod,   4.64,   4.08,   5.08,   6.66,  10.79,  13.98,  16.13,  16.78,  15.67,  13.19,   9.89,   6.82
! <Site:GroundTemperature:Shallow>,Jan{C},Feb{C},Mar{C},Apr{C},May{C},Jun{C},Jul{C},Aug{C},Sep{C},Oct{C},Nov{C},Dec{C}
 Site:GroundTemperature:Shallow,  13.00,  13.00,  13.00,  13.00,  13.00,  13.00,  13.00,  13.00,  13.00,  13.00,  13.00,  13.00
! <Site:GroundTemperature:Deep>,Jan{C},Feb{C},Mar{C},Apr{C},May{C},Jun{C},Jul{C},Aug{C},Sep{C},Oct{C},Nov{C},Dec{C}
 Site:GroundTemperature:Deep,  16.00,  16.00,  16.00,  16.00,  16.00,  16.00,  16.00,  16.00,  16.00,  16.00,  16.00,  16.00
! <Site:GroundReflectance>,Jan{dimensionless},Feb{dimensionless},Mar{dimensionless},Apr{dimensionless},May{dimensionless},Jun{dimensionless},Jul{dimensionless},Aug{dimensionless},Sep{dimensionless},Oct{dimensionless},Nov{dimensionless},Dec{dimensionless}
 Site:GroundReflectance,  0.20,  0.20,  0.20,  0.20,  0.20,  0.20,  0.20,  0.20,  0.20,  0.20,  0.20,  0.20
! <Site:GroundReflectance:SnowModifier>, Normal, Daylighting {dimensionless}
 Site:GroundReflectance:SnowModifier,   1.000,   1.000
! <Site:GroundReflectance:Snow>,Jan{dimensionless},Feb{dimensionless},Mar{dimensionless},Apr{dimensionless},May{dimensionless},Jun{dimensionless},Jul{dimensionless},Aug{dimensionless},Sep{dimensionless},Oct{dimensionless},Nov{dimensionless},Dec{dimensionless}
 Site:GroundReflectance:Snow,  0.20,  0.20,  0.20,  0.20,  0.20,  0.20,  0.20,  0.20,  0.20,  0.20,  0.20,  0.20
! <Site:GroundReflectance:Snow:Daylighting>,Jan{dimensionless},Feb{dimensionless},Mar{dimensionless},Apr{dimensionless},May{dimensionless},Jun{dimensionless},Jul{dimensionless},Aug{dimensionless},Sep{dimensionless},Oct{dimensionless},Nov{dimensionless},Dec{dimensionless}
 Site:GroundReflectance:Snow:Daylighting,  0.20,  0.20,  0.20,  0.20,  0.20,  0.20,  0.20,  0.20,  0.20,  0.20,  0.20,  0.20
! <Environment:Weather Station>,Wind Sensor Height Above Ground {m},Wind Speed Profile Exponent {},Wind Speed Profile Boundary Layer Thickness {m},Air Temperature Sensor Height Above Ground {m},Wind Speed Modifier Coefficient-Internal,Temperature Modifier Coefficient-Internal
Environment:Weather Station,10.000,0.140,270.000,1.500,1.586,9.750E-003
! <Site:Location>, Location Name, Latitude {N+/S- Deg}, Longitude {E+/W- Deg},  Time Zone Number {GMT+/-}, Elevation {m},  Standard Pressure at Elevation {Pa}, Standard RhoAir at Elevation
Site:Location,Vancouver Intl AP BC CAN CWEC2016 WMO#=718920,49.20,-123.18,-8.00,4.30,101273,1.2037
! <Building Information>, Building Name,North Axis {deg},Terrain,  Loads Convergence Tolerance Value,Temperature Convergence Tolerance Value,  Solar Distribution,Maximum Number of Warmup Days,Minimum Number of Warmup Days
 Building Information,LargeHotel-CAN_BC_Vancouver.Intl.AP.718920_CWEC2016.epw created: 2018-09-18 17:19:42 +0000,0.000,City,4.00000E-002,0.20000,FullInteriorAndExterior,25,6
! <Inside Convection Algorithm>, Algorithm {Simple | TARP | CeilingDiffuser | AdaptiveConvectionAlgorithm}
Inside Convection Algorithm,TARP
! <Outside Convection Algorithm>, Algorithm {SimpleCombined | TARP | MoWitt | DOE-2 | AdaptiveConvectionAlgorithm}
Outside Convection Algorithm,TARP
! <Sky Radiance Distribution>, Value {Anisotropic}
Sky Radiance Distribution,Anisotropic
! <Zone Air Solution Algorithm>, Value {ThirdOrderBackwardDifference | AnalyticalSolution | EulerMethod}
 Zone Air Solution Algorithm, ThirdOrderBackwardDifference
! <Zone Air Carbon Dioxide Balance Simulation>, Simulation {Yes/No}, Carbon Dioxide Concentration
 Zone Air Carbon Dioxide Balance Simulation, No,N/A
! <Zone Air Generic Contaminant Balance Simulation>, Simulation {Yes/No}, Generic Contaminant Concentration
 Zone Air Generic Contaminant Balance Simulation, No,N/A
! <Zone Air Mass Flow Balance Simulation>, Enforce Mass Balance, Adjust Zone Mixing, Adjust Zone Infiltration {AddInfiltration | AdjustInfiltration | None}, Infiltration Zones {MixingSourceZonesOnly | AllZones}
 Zone Air Mass Flow Balance Simulation, No,N/A,N/A,N/A
! <HVACSystemRootFindingAlgorithm>, Value {RegulaFalsi | Bisection | BisectionThenRegulaFalsi | RegulaFalsiThenBisection}
 HVACSystemRootFindingAlgorithm, RegulaFalsi
! <Environment:Site Atmospheric Variation>,Wind Speed Profile Exponent {},Wind Speed Profile Boundary Layer Thickness {m},Air Temperature Gradient Coefficient {K/m}
Environment:Site Atmospheric Variation,0.330,460.000,6.500000E-003
! <Surface Geometry>,Starting Corner,Vertex Input Direction,Coordinate System,Daylight Reference Point Coordinate System,Rectangular (Simple) Surface Coordinate System
 Surface Geometry,UpperLeftCorner,Counterclockwise,RelativeCoordinateSystem,RelativeCoordinateSystem,RelativeToZoneOrigin
! <Surface Heat Transfer Algorithm>, Value {CTF - ConductionTransferFunction | EMPD - MoisturePenetrationDepthConductionTransferFunction | CondFD - ConductionFiniteDifference | HAMT - CombinedHeatAndMoistureFiniteElement} - Description,Inside Surface Max Temperature Limit{C}, Surface Convection Coefficient Lower Limit {W/m2-K}, Surface Convection Coefficient Upper Limit {W/m2-K}
Surface Heat Transfer Algorithm, CTF - ConductionTransferFunction,200,0.10,1000.0
! <Shading Summary>, Number of Fixed Detached Shades, Number of Building Detached Shades, Number of Attached Shades
 Shading Summary,0,0,0
! <Zone Summary>, Number of Zones, Number of Zone Surfaces, Number of SubSurfaces
 Zone Summary,22,213,30
! <Zone Information>,Zone Name,North Axis {deg},Origin X-Coordinate {m},Origin Y-Coordinate {m},Origin Z-Coordinate {m},Centroid X-Coordinate {m},Centroid Y-Coordinate {m},Centroid Z-Coordinate {m},Type,Zone Multiplier,Zone List Multiplier,Minimum X {m},Maximum X {m},Minimum Y {m},Maximum Y {m},Minimum Z {m},Maximum Z {m},Ceiling Height {m},Volume {m3},Zone Inside Convection Algorithm {Simple-Detailed-CeilingDiffuser-TrombeWall},Zone Outside Convection Algorithm {Simple-Detailed-Tarp-MoWitt-DOE-2-BLAST}, Floor Area {m2},Exterior Gross Wall Area {m2},Exterior Net Wall Area {m2},Exterior Window Area {m2}, Number of Surfaces, Number of SubSurfaces, Number of Shading SubSurfaces,  Part of Total Building Area
 Zone Information, SP-BANQUET_FLR_6 SYS-3 FLR-4 SCH-B HPLCMT-NORTH ZN,0.0,0.00,0.00,0.00,26.37,17.68,17.68,1,1,1,10.36,42.37,12.50,22.86,16.15,19.20,3.05,1010.89,TARP,TARP,331.66,97.55,65.34,32.21,6,1,0,Yes
 Zone Information, SP-BASEMENT SYS-4 FLR-1 SCH-E HPLCMT-NORTH ZN,0.0,0.00,0.00,0.00,41.45,11.51,-1.22,1,1,1,0.00,86.56,0.00,22.86,-2.44,0.00,2.44,4826.37,TARP,TARP,1978.83,0.00,0.00,0.00,13,0,0,Yes
 Zone Information, SP-CAFE_FLR_1 SYS-6 FLR-2 SCH-C HPLCMT-SOUTH ZN,0.0,0.00,0.00,0.00,70.26,2.90,1.98,1,1,1,53.95,86.56,0.00,5.79,0.00,3.96,3.96,748.35,TARP,TARP,188.86,152.17,86.55,65.62,7,1,0,Yes
 Zone Information, SP-CORRIDOR_FLR_3 SYS-1 FLR-3 SCH-E HPLCMT-SOUTH ZN,0.0,0.00,0.00,0.00,43.28,14.33,8.53,1,4,1,4.57,81.99,5.79,22.86,7.01,10.06,3.05,1186.91,TARP,TARP,389.40,48.31,32.37,15.94,22,4,0,Yes
 Zone Information, SP-CORRIDOR_FLR_6 SYS-3 FLR-4 SCH-E HPLCMT-SOUTH ZN,0.0,0.00,0.00,0.00,41.51,13.35,17.68,1,1,1,4.57,81.99,5.79,22.86,16.15,19.20,3.05,1256.16,TARP,TARP,412.12,85.47,57.25,28.22,18,3,0,Yes
 Zone Information, SP-DINING_FLR_6 SYS-3 FLR-4 SCH-B HPLCMT-NORTH ZN,0.0,0.00,0.00,0.00,63.55,17.68,17.68,1,1,1,47.55,79.55,12.50,22.86,16.15,19.20,3.05,1010.89,TARP,TARP,331.66,97.55,65.34,32.21,6,1,0,Yes
 Zone Information, SP-KITCHEN_FLR_6 SYS-3 FLR-4 SCH-B HPLCMT-EAST ZN,0.0,0.00,0.00,0.00,82.99,14.11,17.68,1,1,1,79.55,86.56,5.79,22.86,16.15,19.20,3.05,314.87,TARP,TARP,103.30,87.33,60.95,26.38,8,3,0,Yes
 Zone Information, SP-LAUNDRY_FLR_1 SYS-6 FLR-2 SCH-C HPLCMT-EAST ZN,0.0,0.00,0.00,0.00,84.28,14.33,1.98,1,1,1,81.99,86.56,5.79,22.86,0.00,3.96,3.96,309.22,TARP,TARP,78.04,85.75,85.75,0.00,6,0,0,Yes
 Zone Information, SP-LOBBY_FLR_1 SYS-6 FLR-2 SCH-H HPLCMT-NORTH ZN,0.0,0.00,0.00,0.00,38.29,12.45,1.98,1,1,1,0.00,81.99,0.00,22.86,0.00,3.96,3.96,5183.56,TARP,TARP,1308.19,434.79,349.55,85.24,18,1,0,Yes
 Zone Information, SP-MECH_FLR_1 SYS-6 FLR-2 SCH-E HPLCMT-NORTH ZN,0.0,0.00,0.00,0.00,61.87,17.68,1.98,1,1,1,53.95,69.80,12.50,22.86,0.00,3.96,3.96,650.80,TARP,TARP,164.24,62.80,62.80,0.00,6,0,0,Yes
 Zone Information, SP-RETAIL_1_FLR_1 SYS-6 FLR-2 SCH-C HPLCMT-SOUTH ZN,0.0,0.00,0.00,0.00,5.79,2.90,1.98,1,1,1,0.00,11.58,0.00,5.79,0.00,3.96,3.96,265.76,TARP,TARP,67.07,68.84,45.54,23.30,6,1,0,Yes
 Zone Information, SP-RETAIL_2_FLR_1 SYS-6 FLR-2 SCH-C HPLCMT-WEST ZN,0.0,0.00,0.00,0.00,5.79,9.14,1.98,1,1,1,0.00,11.58,5.79,12.50,0.00,3.96,3.96,307.76,TARP,TARP,77.67,26.57,26.57,0.00,6,0,0,Yes
 Zone Information, SP-ROOM_1_FLR_3 SYS-1 FLR-3 SCH-F HPLCMT-WEST ZN,0.0,0.00,0.00,0.00,2.29,10.06,8.53,1,4,1,0.00,4.57,5.79,14.33,7.01,10.06,3.05,118.94,TARP,TARP,39.02,39.95,26.77,13.18,6,2,0,Yes
 Zone Information, SP-ROOM_1_FLR_6 SYS-1 FLR-4 SCH-F HPLCMT-WEST ZN,0.0,0.00,0.00,0.00,2.29,10.06,17.68,1,1,1,0.00,4.57,5.79,14.33,16.15,19.20,3.05,118.94,TARP,TARP,39.02,39.95,26.76,13.19,7,2,0,Yes
 Zone Information, SP-ROOM_2_FLR_3 SYS-1 FLR-3 SCH-F HPLCMT-WEST ZN,0.0,0.00,0.00,0.00,2.29,18.59,8.53,1,4,1,0.00,4.57,14.33,22.86,7.01,10.06,3.05,118.93,TARP,TARP,39.02,39.95,26.77,13.18,6,2,0,Yes
 Zone Information, SP-ROOM_2_FLR_6 SYS-1 FLR-4 SCH-F HPLCMT-WEST ZN,0.0,0.00,0.00,0.00,2.29,18.59,17.68,1,1,1,0.00,4.57,14.33,22.86,16.15,19.20,3.05,118.93,TARP,TARP,39.02,39.95,26.76,13.19,6,2,0,Yes
 Zone Information, SP-ROOM_3_MULT19_FLR_3 SYS-1 FLR-3 SCH-F HPLCMT-SOUTH ZN,0.0,0.00,0.00,0.00,8.53,9.14,8.53,1,76,1,6.71,10.36,5.79,12.50,7.01,10.06,3.05,74.75,TARP,TARP,24.52,11.15,7.47,3.68,6,1,0,Yes
 Zone Information, SP-ROOM_3_MULT9_FLR_6 SYS-1 FLR-4 SCH-F HPLCMT-SOUTH ZN,0.0,0.00,0.00,0.00,7.93,7.62,17.68,1,9,1,4.57,11.28,5.79,9.45,16.15,19.20,3.05,74.77,TARP,TARP,24.53,20.44,13.69,6.75,6,1,0,Yes
 Zone Information, SP-ROOM_4_MULT19_FLR_3 SYS-1 FLR-3 SCH-F HPLCMT-NORTH ZN,0.0,0.00,0.00,0.00,12.19,19.51,8.53,1,76,1,10.36,14.02,16.15,22.86,7.01,10.06,3.05,74.77,TARP,TARP,24.53,11.15,7.47,3.68,6,1,0,Yes
 Zone Information, SP-ROOM_5_FLR_3 SYS-1 FLR-3 SCH-F HPLCMT-EAST ZN,0.0,0.00,0.00,0.00,84.28,10.06,8.53,1,4,1,81.99,86.56,5.79,14.33,7.01,10.06,3.05,118.94,TARP,TARP,39.02,39.95,26.77,13.18,6,2,0,Yes
 Zone Information, SP-ROOM_6_FLR_3 SYS-1 FLR-3 SCH-F HPLCMT-EAST ZN,0.0,0.00,0.00,0.00,84.28,18.59,8.53,1,4,1,81.99,86.56,14.33,22.86,7.01,10.06,3.05,118.93,TARP,TARP,39.02,39.95,26.77,13.18,6,2,0,Yes
 Zone Information, SP-STORAGE_FLR_1 SYS-4 FLR-2 SCH-E HPLCMT-NORTH ZN,0.0,0.00,0.00,0.00,74.37,17.68,1.98,1,1,1,69.80,78.94,12.50,22.86,0.00,3.96,3.96,375.47,TARP,TARP,94.76,36.23,36.23,0.00,6,0,0,Yes
! <Zone Internal Gains Nominal>,Zone Name, Floor Area {m2},# Occupants,Area per Occupant {m2/person},Occupant per Area {person/m2},Interior Lighting {W/m2},Electric Load {W/m2},Gas Load {W/m2},Other Load {W/m2},Hot Water Eq {W/m2},Steam Equipment {W/m2},Sum Loads per Area {W/m2},Outdoor Controlled Baseboard Heat
 Zone Internal Gains Nominal, SP-BANQUET_FLR_6 SYS-3 FLR-4 SCH-B HPLCMT-NORTH ZN,331.66,33.2,9.996,0.100,7.003,1.000,0.000,0.000,0.000,0.000,8.003,No
 Zone Internal Gains Nominal, SP-BASEMENT SYS-4 FLR-1 SCH-E HPLCMT-NORTH ZN,1978.83,19.8,99.964,1.000E-002,6.802,0.000,0.000,0.000,0.000,0.000,6.802,No
 Zone Internal Gains Nominal, SP-CAFE_FLR_1 SYS-6 FLR-2 SCH-C HPLCMT-SOUTH ZN,188.86,9.4,19.993,5.002E-002,11.904,1.000,0.000,0.000,0.000,0.000,12.905,No
 Zone Internal Gains Nominal, SP-CORRIDOR_FLR_3 SYS-1 FLR-3 SCH-E HPLCMT-SOUTH ZN,389.40,3.9,99.964,1.000E-002,10.704,0.000,0.000,0.000,0.000,0.000,10.704,No
 Zone Internal Gains Nominal, SP-CORRIDOR_FLR_6 SYS-3 FLR-4 SCH-E HPLCMT-SOUTH ZN,412.12,4.1,99.964,1.000E-002,10.704,0.000,0.000,0.000,0.000,0.000,10.704,No
 Zone Internal Gains Nominal, SP-DINING_FLR_6 SYS-3 FLR-4 SCH-B HPLCMT-NORTH ZN,331.66,33.2,9.996,0.100,7.003,1.000,0.000,0.000,0.000,0.000,8.003,No
 Zone Internal Gains Nominal, SP-KITCHEN_FLR_6 SYS-3 FLR-4 SCH-B HPLCMT-EAST ZN,103.30,5.2,19.993,5.002E-002,13.105,10.004,0.000,0.000,0.000,0.000,23.108,No
 Zone Internal Gains Nominal, SP-LAUNDRY_FLR_1 SYS-6 FLR-2 SCH-C HPLCMT-EAST ZN,78.04,3.9,19.993,5.002E-002,6.502,20.007,0.000,0.000,0.000,0.000,26.510,No
 Zone Internal Gains Nominal, SP-LOBBY_FLR_1 SYS-6 FLR-2 SCH-H HPLCMT-NORTH ZN,1308.19,130.9,9.996,0.100,11.504,2.501,0.000,0.000,0.000,0.000,14.005,No
 Zone Internal Gains Nominal, SP-MECH_FLR_1 SYS-6 FLR-2 SCH-E HPLCMT-NORTH ZN,164.24,0.8,199.927,5.002E-003,4.602,1.000,0.000,0.000,0.000,0.000,5.602,No
 Zone Internal Gains Nominal, SP-RETAIL_1_FLR_1 SYS-6 FLR-2 SCH-C HPLCMT-SOUTH ZN,67.07,2.2,29.989,3.335E-002,15.506,2.501,0.000,0.000,0.000,0.000,18.007,No
 Zone Internal Gains Nominal, SP-RETAIL_2_FLR_1 SYS-6 FLR-2 SCH-C HPLCMT-WEST ZN,77.67,2.6,29.989,3.335E-002,15.506,2.501,0.000,0.000,0.000,0.000,18.007,No
 Zone Internal Gains Nominal, SP-ROOM_1_FLR_3 SYS-1 FLR-3 SCH-F HPLCMT-WEST ZN,39.02,1.6,24.991,4.001E-002,5.102,2.501,0.000,0.000,0.000,0.000,7.603,No
 Zone Internal Gains Nominal, SP-ROOM_1_FLR_6 SYS-1 FLR-4 SCH-F HPLCMT-WEST ZN,39.02,1.6,24.991,4.001E-002,5.102,2.501,0.000,0.000,0.000,0.000,7.603,No
 Zone Internal Gains Nominal, SP-ROOM_2_FLR_3 SYS-1 FLR-3 SCH-F HPLCMT-WEST ZN,39.02,1.6,24.991,4.001E-002,5.102,2.501,0.000,0.000,0.000,0.000,7.603,No
 Zone Internal Gains Nominal, SP-ROOM_2_FLR_6 SYS-1 FLR-4 SCH-F HPLCMT-WEST ZN,39.02,1.6,24.991,4.001E-002,5.102,2.501,0.000,0.000,0.000,0.000,7.603,No
 Zone Internal Gains Nominal, SP-ROOM_3_MULT19_FLR_3 SYS-1 FLR-3 SCH-F HPLCMT-SOUTH ZN,24.52,1.0,24.991,4.001E-002,5.102,2.501,0.000,0.000,0.000,0.000,7.603,No
 Zone Internal Gains Nominal, SP-ROOM_3_MULT9_FLR_6 SYS-1 FLR-4 SCH-F HPLCMT-SOUTH ZN,24.53,1.0,24.991,4.001E-002,5.102,2.501,0.000,0.000,0.000,0.000,7.603,No
 Zone Internal Gains Nominal, SP-ROOM_4_MULT19_FLR_3 SYS-1 FLR-3 SCH-F HPLCMT-NORTH ZN,24.53,1.0,24.991,4.001E-002,5.102,2.501,0.000,0.000,0.000,0.000,7.603,No
 Zone Internal Gains Nominal, SP-ROOM_5_FLR_3 SYS-1 FLR-3 SCH-F HPLCMT-EAST ZN,39.02,1.6,24.991,4.001E-002,5.102,2.501,0.000,0.000,0.000,0.000,7.603,No
 Zone Internal Gains Nominal, SP-ROOM_6_FLR_3 SYS-1 FLR-3 SCH-F HPLCMT-EAST ZN,39.02,1.6,24.991,4.001E-002,5.102,2.501,0.000,0.000,0.000,0.000,7.603,No
 Zone Internal Gains Nominal, SP-STORAGE_FLR_1 SYS-4 FLR-2 SCH-E HPLCMT-NORTH ZN,94.76,0.9,99.964,1.000E-002,6.802,0.000,0.000,0.000,0.000,0.000,6.802,No
! <People Internal Gains Nominal>,Name,Schedule Name,Zone Name,Zone Floor Area {m2},# Zone Occupants,Number of People {},People/Floor Area {person/m2},Floor Area per person {m2/person},Fraction Radiant,Fraction Convected,Sensible Fraction Calculation,Activity level,ASHRAE 55 Warnings,Carbon Dioxide Generation Rate,Nominal Minimum Number of People,Nominal Maximum Number of People
 People Internal Gains Nominal, SP-CORRIDOR_FLR_3 SYS-1 FLR-3 SCH-E HPLCMT-SOUTH ZN SPACE FUNCTION CORRIDOR/TRANSITION AREA - HOSPITAL-SCH-E PEOPLE,NECB-E-OCCUPANCY,SP-CORRIDOR_FLR_3 SYS-1 FLR-3 SCH-E HPLCMT-SOUTH ZN,389.40,3.9,3.9,1.000E-002,99.964,0.300,0.700,AutoCalculate,NECB-ACTIVITY,No,3.8200E-008,0,4
 People Internal Gains Nominal, SP-CORRIDOR_FLR_6 SYS-3 FLR-4 SCH-E HPLCMT-SOUTH ZN SPACE FUNCTION CORRIDOR/TRANSITION AREA - HOSPITAL-SCH-E PEOPLE,NECB-E-OCCUPANCY,SP-CORRIDOR_FLR_6 SYS-3 FLR-4 SCH-E HPLCMT-SOUTH ZN,412.12,4.1,4.1,1.000E-002,99.964,0.300,0.700,AutoCalculate,NECB-ACTIVITY,No,3.8200E-008,0,4
 People Internal Gains Nominal, SP-BANQUET_FLR_6 SYS-3 FLR-4 SCH-B HPLCMT-NORTH ZN SPACE FUNCTION DINING AREA - OTHER PEOPLE,NECB-B-OCCUPANCY,SP-BANQUET_FLR_6 SYS-3 FLR-4 SCH-B HPLCMT-NORTH ZN,331.66,33.2,33.2,0.100,9.996,0.300,0.700,AutoCalculate,NECB-ACTIVITY,No,3.8200E-008,0,30
 People Internal Gains Nominal, SP-DINING_FLR_6 SYS-3 FLR-4 SCH-B HPLCMT-NORTH ZN SPACE FUNCTION DINING AREA - OTHER PEOPLE,NECB-B-OCCUPANCY,SP-DINING_FLR_6 SYS-3 FLR-4 SCH-B HPLCMT-NORTH ZN,331.66,33.2,33.2,0.100,9.996,0.300,0.700,AutoCalculate,NECB-ACTIVITY,No,3.8200E-008,0,30
 People Internal Gains Nominal, SP-MECH_FLR_1 SYS-6 FLR-2 SCH-E HPLCMT-NORTH ZN SPACE FUNCTION ELECTRICAL/MECHANICAL ROOM-SCH-E PEOPLE,NECB-E-OCCUPANCY,SP-MECH_FLR_1 SYS-6 FLR-2 SCH-E HPLCMT-NORTH ZN,164.24,0.8,0.8,5.002E-003,199.927,0.300,0.700,AutoCalculate,NECB-ACTIVITY,No,3.8200E-008,0,1
 People Internal Gains Nominal, SP-KITCHEN_FLR_6 SYS-3 FLR-4 SCH-B HPLCMT-EAST ZN SPACE FUNCTION FOOD PREPARATION AREA PEOPLE,NECB-B-OCCUPANCY,SP-KITCHEN_FLR_6 SYS-3 FLR-4 SCH-B HPLCMT-EAST ZN,103.30,5.2,5.2,5.002E-002,19.993,0.300,0.700,AutoCalculate,NECB-ACTIVITY,No,3.8200E-008,0,5
 People Internal Gains Nominal, SP-ROOM_1_FLR_3 SYS-1 FLR-3 SCH-F HPLCMT-WEST ZN SPACE FUNCTION GUEST ROOM PEOPLE,NECB-F-OCCUPANCY,SP-ROOM_1_FLR_3 SYS-1 FLR-3 SCH-F HPLCMT-WEST ZN,39.02,1.6,1.6,4.001E-002,24.991,0.300,0.700,AutoCalculate,NECB-ACTIVITY,No,3.8200E-008,0,1
 People Internal Gains Nominal, SP-ROOM_1_FLR_6 SYS-1 FLR-4 SCH-F HPLCMT-WEST ZN SPACE FUNCTION GUEST ROOM PEOPLE,NECB-F-OCCUPANCY,SP-ROOM_1_FLR_6 SYS-1 FLR-4 SCH-F HPLCMT-WEST ZN,39.02,1.6,1.6,4.001E-002,24.991,0.300,0.700,AutoCalculate,NECB-ACTIVITY,No,3.8200E-008,0,1
 People Internal Gains Nominal, SP-ROOM_2_FLR_3 SYS-1 FLR-3 SCH-F HPLCMT-WEST ZN SPACE FUNCTION GUEST ROOM PEOPLE,NECB-F-OCCUPANCY,SP-ROOM_2_FLR_3 SYS-1 FLR-3 SCH-F HPLCMT-WEST ZN,39.02,1.6,1.6,4.001E-002,24.991,0.300,0.700,AutoCalculate,NECB-ACTIVITY,No,3.8200E-008,0,1
 People Internal Gains Nominal, SP-ROOM_2_FLR_6 SYS-1 FLR-4 SCH-F HPLCMT-WEST ZN SPACE FUNCTION GUEST ROOM PEOPLE,NECB-F-OCCUPANCY,SP-ROOM_2_FLR_6 SYS-1 FLR-4 SCH-F HPLCMT-WEST ZN,39.02,1.6,1.6,4.001E-002,24.991,0.300,0.700,AutoCalculate,NECB-ACTIVITY,No,3.8200E-008,0,1
 People Internal Gains Nominal, SP-ROOM_3_MULT19_FLR_3 SYS-1 FLR-3 SCH-F HPLCMT-SOUTH ZN SPACE FUNCTION GUEST ROOM PEOPLE,NECB-F-OCCUPANCY,SP-ROOM_3_MULT19_FLR_3 SYS-1 FLR-3 SCH-F HPLCMT-SOUTH ZN,24.52,1.0,1.0,4.001E-002,24.991,0.300,0.700,AutoCalculate,NECB-ACTIVITY,No,3.8200E-008,0,1
 People Internal Gains Nominal, SP-ROOM_3_MULT9_FLR_6 SYS-1 FLR-4 SCH-F HPLCMT-SOUTH ZN SPACE FUNCTION GUEST ROOM PEOPLE,NECB-F-OCCUPANCY,SP-ROOM_3_MULT9_FLR_6 SYS-1 FLR-4 SCH-F HPLCMT-SOUTH ZN,24.53,1.0,1.0,4.001E-002,24.991,0.300,0.700,AutoCalculate,NECB-ACTIVITY,No,3.8200E-008,0,1
 People Internal Gains Nominal, SP-ROOM_4_MULT19_FLR_3 SYS-1 FLR-3 SCH-F HPLCMT-NORTH ZN SPACE FUNCTION GUEST ROOM PEOPLE,NECB-F-OCCUPANCY,SP-ROOM_4_MULT19_FLR_3 SYS-1 FLR-3 SCH-F HPLCMT-NORTH ZN,24.53,1.0,1.0,4.001E-002,24.991,0.300,0.700,AutoCalculate,NECB-ACTIVITY,No,3.8200E-008,0,1
 People Internal Gains Nominal, SP-ROOM_5_FLR_3 SYS-1 FLR-3 SCH-F HPLCMT-EAST ZN SPACE FUNCTION GUEST ROOM PEOPLE,NECB-F-OCCUPANCY,SP-ROOM_5_FLR_3 SYS-1 FLR-3 SCH-F HPLCMT-EAST ZN,39.02,1.6,1.6,4.001E-002,24.991,0.300,0.700,AutoCalculate,NECB-ACTIVITY,No,3.8200E-008,0,1
 People Internal Gains Nominal, SP-ROOM_6_FLR_3 SYS-1 FLR-3 SCH-F HPLCMT-EAST ZN SPACE FUNCTION GUEST ROOM PEOPLE,NECB-F-OCCUPANCY,SP-ROOM_6_FLR_3 SYS-1 FLR-3 SCH-F HPLCMT-EAST ZN,39.02,1.6,1.6,4.001E-002,24.991,0.300,0.700,AutoCalculate,NECB-ACTIVITY,No,3.8200E-008,0,1
 People Internal Gains Nominal, SP-LAUNDRY_FLR_1 SYS-6 FLR-2 SCH-C HPLCMT-EAST ZN SPACE FUNCTION LAUNDRY/WASHING AREA PEOPLE,NECB-C-OCCUPANCY,SP-LAUNDRY_FLR_1 SYS-6 FLR-2 SCH-C HPLCMT-EAST ZN,78.04,3.9,3.9,5.002E-002,19.993,0.300,0.700,AutoCalculate,NECB-ACTIVITY,No,3.8200E-008,0,4
 People Internal Gains Nominal, SP-LOBBY_FLR_1 SYS-6 FLR-2 SCH-H HPLCMT-NORTH ZN SPACE FUNCTION LOBBY - HOTEL PEOPLE,NECB-H-OCCUPANCY,SP-LOBBY_FLR_1 SYS-6 FLR-2 SCH-H HPLCMT-NORTH ZN,1308.19,130.9,130.9,0.100,9.996,0.300,0.700,AutoCalculate,NECB-ACTIVITY,No,3.8200E-008,118,118
 People Internal Gains Nominal, SP-CAFE_FLR_1 SYS-6 FLR-2 SCH-C HPLCMT-SOUTH ZN SPACE FUNCTION RETAIL FACILITY MALL CONCOURSE PEOPLE,NECB-C-OCCUPANCY,SP-CAFE_FLR_1 SYS-6 FLR-2 SCH-C HPLCMT-SOUTH ZN,188.86,9.4,9.4,5.002E-002,19.993,0.300,0.700,AutoCalculate,NECB-ACTIVITY,No,3.8200E-008,0,9
 People Internal Gains Nominal, SP-RETAIL_1_FLR_1 SYS-6 FLR-2 SCH-C HPLCMT-SOUTH ZN SPACE FUNCTION SALES AREA PEOPLE,NECB-C-OCCUPANCY,SP-RETAIL_1_FLR_1 SYS-6 FLR-2 SCH-C HPLCMT-SOUTH ZN,67.07,2.2,2.2,3.335E-002,29.989,0.300,0.700,AutoCalculate,NECB-ACTIVITY,No,3.8200E-008,0,2
 People Internal Gains Nominal, SP-RETAIL_2_FLR_1 SYS-6 FLR-2 SCH-C HPLCMT-WEST ZN SPACE FUNCTION SALES AREA PEOPLE,NECB-C-OCCUPANCY,SP-RETAIL_2_FLR_1 SYS-6 FLR-2 SCH-C HPLCMT-WEST ZN,77.67,2.6,2.6,3.335E-002,29.989,0.300,0.700,AutoCalculate,NECB-ACTIVITY,No,3.8200E-008,0,2
 People Internal Gains Nominal, SP-BASEMENT SYS-4 FLR-1 SCH-E HPLCMT-NORTH ZN SPACE FUNCTION STORAGE ROOM <= 5 M2 <= 100 M2-SCH-E PEOPLE,NECB-E-OCCUPANCY,SP-BASEMENT SYS-4 FLR-1 SCH-E HPLCMT-NORTH ZN,1978.83,19.8,19.8,1.000E-002,99.964,0.300,0.700,AutoCalculate,NECB-ACTIVITY,No,3.8200E-008,0,18
 People Internal Gains Nominal, SP-STORAGE_FLR_1 SYS-4 FLR-2 SCH-E HPLCMT-NORTH ZN SPACE FUNCTION STORAGE ROOM <= 5 M2 <= 100 M2-SCH-E PEOPLE,NECB-E-OCCUPANCY,SP-STORAGE_FLR_1 SYS-4 FLR-2 SCH-E HPLCMT-NORTH ZN,94.76,0.9,0.9,1.000E-002,99.964,0.300,0.700,AutoCalculate,NECB-ACTIVITY,No,3.8200E-008,0,1
! <Lights Internal Gains Nominal>,Name,Schedule Name,Zone Name,Zone Floor Area {m2},# Zone Occupants,Lighting Level {W},Lights/Floor Area {W/m2},Lights per person {W/person},Fraction Return Air,Fraction Radiant,Fraction Short Wave,Fraction Convected,Fraction Replaceable,End-Use Category,Nominal Minimum Lighting Level {W},Nominal Maximum Lighting Level {W}
 Lights Internal Gains Nominal, SP-CORRIDOR_FLR_3 SYS-1 FLR-3 SCH-E HPLCMT-SOUTH ZN SPACE FUNCTION CORRIDOR/TRANSITION AREA - HOSPITAL-SCH-E LIGHTS,NECB-E-OCCUPANCY-NECB-E-LIGHTING-0.0-0.0-0.67-LIGHT RULESET,SP-CORRIDOR_FLR_3 SYS-1 FLR-3 SCH-E HPLCMT-SOUTH ZN,389.40,3.9,4168.144,10.704,1070.000,0.000,0.500,0.200,0.300,1.000,General,208.407,3751.330
 Lights Internal Gains Nominal, SP-CORRIDOR_FLR_6 SYS-3 FLR-4 SCH-E HPLCMT-SOUTH ZN SPACE FUNCTION CORRIDOR/TRANSITION AREA - HOSPITAL-SCH-E LIGHTS,NECB-E-OCCUPANCY-NECB-E-LIGHTING-0.0-0.0-0.67-LIGHT RULESET,SP-CORRIDOR_FLR_6 SYS-3 FLR-4 SCH-E HPLCMT-SOUTH ZN,412.12,4.1,4411.337,10.704,1070.000,0.000,0.500,0.200,0.300,1.000,General,220.567,3970.203
 Lights Internal Gains Nominal, SP-BANQUET_FLR_6 SYS-3 FLR-4 SCH-B HPLCMT-NORTH ZN SPACE FUNCTION DINING AREA - OTHER LIGHTS,NECB-B-LIGHTING,SP-BANQUET_FLR_6 SYS-3 FLR-4 SCH-B HPLCMT-NORTH ZN,331.66,33.2,2322.446,7.003,70.000,0.000,0.500,0.200,0.300,1.000,General,232.245,2090.201
 Lights Internal Gains Nominal, SP-DINING_FLR_6 SYS-3 FLR-4 SCH-B HPLCMT-NORTH ZN SPACE FUNCTION DINING AREA - OTHER LIGHTS,NECB-B-LIGHTING,SP-DINING_FLR_6 SYS-3 FLR-4 SCH-B HPLCMT-NORTH ZN,331.66,33.2,2322.446,7.003,70.000,0.000,0.500,0.200,0.300,1.000,General,232.245,2090.201
 Lights Internal Gains Nominal, SP-MECH_FLR_1 SYS-6 FLR-2 SCH-E HPLCMT-NORTH ZN SPACE FUNCTION ELECTRICAL/MECHANICAL ROOM-SCH-E LIGHTS,NECB-E-LIGHTING,SP-MECH_FLR_1 SYS-6 FLR-2 SCH-E HPLCMT-NORTH ZN,164.24,0.8,755.793,4.602,920.000,0.000,0.500,0.200,0.300,1.000,General,37.790,680.214
 Lights Internal Gains Nominal, SP-KITCHEN_FLR_6 SYS-3 FLR-4 SCH-B HPLCMT-EAST ZN SPACE FUNCTION FOOD PREPARATION AREA LIGHTS,NECB-B-OCCUPANCY-NECB-B-LIGHTING-0.0-0.0-0.67-LIGHT RULESET,SP-KITCHEN_FLR_6 SYS-3 FLR-4 SCH-B HPLCMT-EAST ZN,103.30,5.2,1353.780,13.105,262.000,0.000,0.500,0.200,0.300,1.000,General,135.378,1218.402
 Lights Internal Gains Nominal, SP-ROOM_1_FLR_3 SYS-1 FLR-3 SCH-F HPLCMT-WEST ZN SPACE FUNCTION GUEST ROOM LIGHTS,NECB-F-LIGHTING,SP-ROOM_1_FLR_3 SYS-1 FLR-3 SCH-F HPLCMT-WEST ZN,39.02,1.6,199.085,5.102,127.500,0.000,0.500,0.200,0.300,1.000,General,13.936,125.423
 Lights Internal Gains Nominal, SP-ROOM_1_FLR_6 SYS-1 FLR-4 SCH-F HPLCMT-WEST ZN SPACE FUNCTION GUEST ROOM LIGHTS,NECB-F-LIGHTING,SP-ROOM_1_FLR_6 SYS-1 FLR-4 SCH-F HPLCMT-WEST ZN,39.02,1.6,199.085,5.102,127.500,0.000,0.500,0.200,0.300,1.000,General,13.936,125.423
 Lights Internal Gains Nominal, SP-ROOM_2_FLR_3 SYS-1 FLR-3 SCH-F HPLCMT-WEST ZN SPACE FUNCTION GUEST ROOM LIGHTS,NECB-F-LIGHTING,SP-ROOM_2_FLR_3 SYS-1 FLR-3 SCH-F HPLCMT-WEST ZN,39.02,1.6,199.061,5.102,127.500,0.000,0.500,0.200,0.300,1.000,General,13.934,125.409
 Lights Internal Gains Nominal, SP-ROOM_2_FLR_6 SYS-1 FLR-4 SCH-F HPLCMT-WEST ZN SPACE FUNCTION GUEST ROOM LIGHTS,NECB-F-LIGHTING,SP-ROOM_2_FLR_6 SYS-1 FLR-4 SCH-F HPLCMT-WEST ZN,39.02,1.6,199.061,5.102,127.500,0.000,0.500,0.200,0.300,1.000,General,13.934,125.409
 Lights Internal Gains Nominal, SP-ROOM_3_MULT19_FLR_3 SYS-1 FLR-3 SCH-F HPLCMT-SOUTH ZN SPACE FUNCTION GUEST ROOM LIGHTS,NECB-F-LIGHTING,SP-ROOM_3_MULT19_FLR_3 SYS-1 FLR-3 SCH-F HPLCMT-SOUTH ZN,24.52,1.0,125.117,5.102,127.500,0.000,0.500,0.200,0.300,1.000,General,8.758,78.824
 Lights Internal Gains Nominal, SP-ROOM_3_MULT9_FLR_6 SYS-1 FLR-4 SCH-F HPLCMT-SOUTH ZN SPACE FUNCTION GUEST ROOM LIGHTS,NECB-F-LIGHTING,SP-ROOM_3_MULT9_FLR_6 SYS-1 FLR-4 SCH-F HPLCMT-SOUTH ZN,24.53,1.0,125.151,5.102,127.500,0.000,0.500,0.200,0.300,1.000,General,8.761,78.845
 Lights Internal Gains Nominal, SP-ROOM_4_MULT19_FLR_3 SYS-1 FLR-3 SCH-F HPLCMT-NORTH ZN SPACE FUNCTION GUEST ROOM LIGHTS,NECB-F-LIGHTING,SP-ROOM_4_MULT19_FLR_3 SYS-1 FLR-3 SCH-F HPLCMT-NORTH ZN,24.53,1.0,125.151,5.102,127.500,0.000,0.500,0.200,0.300,1.000,General,8.761,78.845
 Lights Internal Gains Nominal, SP-ROOM_5_FLR_3 SYS-1 FLR-3 SCH-F HPLCMT-EAST ZN SPACE FUNCTION GUEST ROOM LIGHTS,NECB-F-LIGHTING,SP-ROOM_5_FLR_3 SYS-1 FLR-3 SCH-F HPLCMT-EAST ZN,39.02,1.6,199.085,5.102,127.500,0.000,0.500,0.200,0.300,1.000,General,13.936,125.423
 Lights Internal Gains Nominal, SP-ROOM_6_FLR_3 SYS-1 FLR-3 SCH-F HPLCMT-EAST ZN SPACE FUNCTION GUEST ROOM LIGHTS,NECB-F-LIGHTING,SP-ROOM_6_FLR_3 SYS-1 FLR-3 SCH-F HPLCMT-EAST ZN,39.02,1.6,199.061,5.102,127.500,0.000,0.500,0.200,0.300,1.000,General,13.934,125.409
 Lights Internal Gains Nominal, SP-LAUNDRY_FLR_1 SYS-6 FLR-2 SCH-C HPLCMT-EAST ZN SPACE FUNCTION LAUNDRY/WASHING AREA LIGHTS,NECB-C-LIGHTING,SP-LAUNDRY_FLR_1 SYS-6 FLR-2 SCH-C HPLCMT-EAST ZN,78.04,3.9,507.441,6.502,130.000,0.000,0.500,0.200,0.300,1.000,General,25.372,456.697
 Lights Internal Gains Nominal, SP-LOBBY_FLR_1 SYS-6 FLR-2 SCH-H HPLCMT-NORTH ZN SPACE FUNCTION LOBBY - HOTEL LIGHTS,NECB-H-OCCUPANCY-NECB-H-LIGHTING-0.0-0.0-0.67-LIGHT RULESET,SP-LOBBY_FLR_1 SYS-6 FLR-2 SCH-H HPLCMT-NORTH ZN,1308.19,130.9,15049.608,11.504,115.000,0.000,0.500,0.200,0.300,1.000,General,13544.647,13544.647
 Lights Internal Gains Nominal, SP-CAFE_FLR_1 SYS-6 FLR-2 SCH-C HPLCMT-SOUTH ZN SPACE FUNCTION RETAIL FACILITY MALL CONCOURSE LIGHTS,NECB-C-OCCUPANCY-NECB-C-LIGHTING-0.0-0.0-0.67-LIGHT RULESET,SP-CAFE_FLR_1 SYS-6 FLR-2 SCH-C HPLCMT-SOUTH ZN,188.86,9.4,2248.273,11.904,238.000,0.000,0.500,0.200,0.300,1.000,General,112.414,2023.446
 Lights Internal Gains Nominal, SP-RETAIL_1_FLR_1 SYS-6 FLR-2 SCH-C HPLCMT-SOUTH ZN SPACE FUNCTION SALES AREA LIGHTS,NECB-C-OCCUPANCY-NECB-C-LIGHTING-0.0-0.0-0.67-LIGHT RULESET,SP-RETAIL_1_FLR_1 SYS-6 FLR-2 SCH-C HPLCMT-SOUTH ZN,67.07,2.2,1039.984,15.506,465.000,0.000,0.500,0.200,0.300,1.000,General,51.999,935.986
 Lights Internal Gains Nominal, SP-RETAIL_2_FLR_1 SYS-6 FLR-2 SCH-C HPLCMT-WEST ZN SPACE FUNCTION SALES AREA LIGHTS,NECB-C-OCCUPANCY-NECB-C-LIGHTING-0.0-0.0-0.67-LIGHT RULESET,SP-RETAIL_2_FLR_1 SYS-6 FLR-2 SCH-C HPLCMT-WEST ZN,77.67,2.6,1204.305,15.506,465.000,0.000,0.500,0.200,0.300,1.000,General,60.215,1083.875
 Lights Internal Gains Nominal, SP-BASEMENT SYS-4 FLR-1 SCH-E HPLCMT-NORTH ZN SPACE FUNCTION STORAGE ROOM <= 5 M2 <= 100 M2-SCH-E LIGHTS,NECB-E-LIGHTING,SP-BASEMENT SYS-4 FLR-1 SCH-E HPLCMT-NORTH ZN,1978.83,19.8,13460.935,6.802,680.000,0.000,0.500,0.200,0.300,1.000,General,673.047,12114.842
 Lights Internal Gains Nominal, SP-STORAGE_FLR_1 SYS-4 FLR-2 SCH-E HPLCMT-NORTH ZN SPACE FUNCTION STORAGE ROOM <= 5 M2 <= 100 M2-SCH-E LIGHTS,NECB-E-LIGHTING,SP-STORAGE_FLR_1 SYS-4 FLR-2 SCH-E HPLCMT-NORTH ZN,94.76,0.9,644.597,6.802,680.000,0.000,0.500,0.200,0.300,1.000,General,32.230,580.138
! <ElectricEquipment Internal Gains Nominal>,Name,Schedule Name,Zone Name,Zone Floor Area {m2},# Zone Occupants,Equipment Level {W},Equipment/Floor Area {W/m2},Equipment per person {W/person},Fraction Latent,Fraction Radiant,Fraction Lost,Fraction Convected,End-Use SubCategory,Nominal Minimum Equipment Level {W},Nominal Maximum Equipment Level {W}
 ElectricEquipment Internal Gains Nominal, SP-BANQUET_FLR_6 SYS-3 FLR-4 SCH-B HPLCMT-NORTH ZN SPACE FUNCTION DINING AREA - OTHER ELEC EQUIP,NECB-B-ELECTRIC-EQUIPMENT,SP-BANQUET_FLR_6 SYS-3 FLR-4 SCH-B HPLCMT-NORTH ZN,331.66,33.2,331.778,1.000,10.000,0.000,0.500,0.000,0.500,General,33.178,298.600
 ElectricEquipment Internal Gains Nominal, SP-DINING_FLR_6 SYS-3 FLR-4 SCH-B HPLCMT-NORTH ZN SPACE FUNCTION DINING AREA - OTHER ELEC EQUIP,NECB-B-ELECTRIC-EQUIPMENT,SP-DINING_FLR_6 SYS-3 FLR-4 SCH-B HPLCMT-NORTH ZN,331.66,33.2,331.778,1.000,10.000,0.000,0.500,0.000,0.500,General,33.178,298.600
 ElectricEquipment Internal Gains Nominal, SP-MECH_FLR_1 SYS-6 FLR-2 SCH-E HPLCMT-NORTH ZN SPACE FUNCTION ELECTRICAL/MECHANICAL ROOM-SCH-E ELEC EQUIP,NECB-E-ELECTRIC-EQUIPMENT,SP-MECH_FLR_1 SYS-6 FLR-2 SCH-E HPLCMT-NORTH ZN,164.24,0.8,164.303,1.000,200.000,0.000,0.500,0.000,0.500,General,8.215,147.873
 ElectricEquipment Internal Gains Nominal, SP-KITCHEN_FLR_6 SYS-3 FLR-4 SCH-B HPLCMT-EAST ZN SPACE FUNCTION FOOD PREPARATION AREA ELEC EQUIP,NECB-B-ELECTRIC-EQUIPMENT,SP-KITCHEN_FLR_6 SYS-3 FLR-4 SCH-B HPLCMT-EAST ZN,103.30,5.2,1033.420,10.004,200.000,0.000,0.500,0.000,0.500,General,103.342,930.078
 ElectricEquipment Internal Gains Nominal, SP-ROOM_1_FLR_3 SYS-1 FLR-3 SCH-F HPLCMT-WEST ZN SPACE FUNCTION GUEST ROOM ELEC EQUIP,NECB-F-ELECTRIC-EQUIPMENT,SP-ROOM_1_FLR_3 SYS-1 FLR-3 SCH-F HPLCMT-WEST ZN,39.02,1.6,97.591,2.501,62.500,0.000,0.500,0.000,0.500,General,6.831,61.482
 ElectricEquipment Internal Gains Nominal, SP-ROOM_1_FLR_6 SYS-1 FLR-4 SCH-F HPLCMT-WEST ZN SPACE FUNCTION GUEST ROOM ELEC EQUIP,NECB-F-ELECTRIC-EQUIPMENT,SP-ROOM_1_FLR_6 SYS-1 FLR-4 SCH-F HPLCMT-WEST ZN,39.02,1.6,97.591,2.501,62.500,0.000,0.500,0.000,0.500,General,6.831,61.482
 ElectricEquipment Internal Gains Nominal, SP-ROOM_2_FLR_3 SYS-1 FLR-3 SCH-F HPLCMT-WEST ZN SPACE FUNCTION GUEST ROOM ELEC EQUIP,NECB-F-ELECTRIC-EQUIPMENT,SP-ROOM_2_FLR_3 SYS-1 FLR-3 SCH-F HPLCMT-WEST ZN,39.02,1.6,97.579,2.501,62.500,0.000,0.500,0.000,0.500,General,6.831,61.475
 ElectricEquipment Internal Gains Nominal, SP-ROOM_2_FLR_6 SYS-1 FLR-4 SCH-F HPLCMT-WEST ZN SPACE FUNCTION GUEST ROOM ELEC EQUIP,NECB-F-ELECTRIC-EQUIPMENT,SP-ROOM_2_FLR_6 SYS-1 FLR-4 SCH-F HPLCMT-WEST ZN,39.02,1.6,97.579,2.501,62.500,0.000,0.500,0.000,0.500,General,6.831,61.475
 ElectricEquipment Internal Gains Nominal, SP-ROOM_3_MULT19_FLR_3 SYS-1 FLR-3 SCH-F HPLCMT-SOUTH ZN SPACE FUNCTION GUEST ROOM ELEC EQUIP,NECB-F-ELECTRIC-EQUIPMENT,SP-ROOM_3_MULT19_FLR_3 SYS-1 FLR-3 SCH-F HPLCMT-SOUTH ZN,24.52,1.0,61.332,2.501,62.500,0.000,0.500,0.000,0.500,General,4.293,38.639
 ElectricEquipment Internal Gains Nominal, SP-ROOM_3_MULT9_FLR_6 SYS-1 FLR-4 SCH-F HPLCMT-SOUTH ZN SPACE FUNCTION GUEST ROOM ELEC EQUIP,NECB-F-ELECTRIC-EQUIPMENT,SP-ROOM_3_MULT9_FLR_6 SYS-1 FLR-4 SCH-F HPLCMT-SOUTH ZN,24.53,1.0,61.349,2.501,62.500,0.000,0.500,0.000,0.500,General,4.294,38.650
 ElectricEquipment Internal Gains Nominal, SP-ROOM_4_MULT19_FLR_3 SYS-1 FLR-3 SCH-F HPLCMT-NORTH ZN SPACE FUNCTION GUEST ROOM ELEC EQUIP,NECB-F-ELECTRIC-EQUIPMENT,SP-ROOM_4_MULT19_FLR_3 SYS-1 FLR-3 SCH-F HPLCMT-NORTH ZN,24.53,1.0,61.349,2.501,62.500,0.000,0.500,0.000,0.500,General,4.294,38.650
 ElectricEquipment Internal Gains Nominal, SP-ROOM_5_FLR_3 SYS-1 FLR-3 SCH-F HPLCMT-EAST ZN SPACE FUNCTION GUEST ROOM ELEC EQUIP,NECB-F-ELECTRIC-EQUIPMENT,SP-ROOM_5_FLR_3 SYS-1 FLR-3 SCH-F HPLCMT-EAST ZN,39.02,1.6,97.591,2.501,62.500,0.000,0.500,0.000,0.500,General,6.831,61.482
 ElectricEquipment Internal Gains Nominal, SP-ROOM_6_FLR_3 SYS-1 FLR-3 SCH-F HPLCMT-EAST ZN SPACE FUNCTION GUEST ROOM ELEC EQUIP,NECB-F-ELECTRIC-EQUIPMENT,SP-ROOM_6_FLR_3 SYS-1 FLR-3 SCH-F HPLCMT-EAST ZN,39.02,1.6,97.579,2.501,62.500,0.000,0.500,0.000,0.500,General,6.831,61.475
 ElectricEquipment Internal Gains Nominal, SP-LAUNDRY_FLR_1 SYS-6 FLR-2 SCH-C HPLCMT-EAST ZN SPACE FUNCTION LAUNDRY/WASHING AREA ELEC EQUIP,NECB-C-ELECTRIC-EQUIPMENT,SP-LAUNDRY_FLR_1 SYS-6 FLR-2 SCH-C HPLCMT-EAST ZN,78.04,3.9,1561.357,20.007,400.000,0.000,0.500,0.000,0.500,General,78.068,1405.221
 ElectricEquipment Internal Gains Nominal, SP-LOBBY_FLR_1 SYS-6 FLR-2 SCH-H HPLCMT-NORTH ZN SPACE FUNCTION LOBBY - HOTEL ELEC EQUIP,NECB-H-ELECTRIC-EQUIPMENT,SP-LOBBY_FLR_1 SYS-6 FLR-2 SCH-H HPLCMT-NORTH ZN,1308.19,130.9,3271.654,2.501,25.000,0.000,0.500,0.000,0.500,General,2944.488,2944.488
 ElectricEquipment Internal Gains Nominal, SP-CAFE_FLR_1 SYS-6 FLR-2 SCH-C HPLCMT-SOUTH ZN SPACE FUNCTION RETAIL FACILITY MALL CONCOURSE ELEC EQUIP,NECB-C-ELECTRIC-EQUIPMENT,SP-CAFE_FLR_1 SYS-6 FLR-2 SCH-C HPLCMT-SOUTH ZN,188.86,9.4,188.931,1.000,20.000,0.000,0.500,0.000,0.500,General,9.447,170.037
 ElectricEquipment Internal Gains Nominal, SP-RETAIL_1_FLR_1 SYS-6 FLR-2 SCH-C HPLCMT-SOUTH ZN SPACE FUNCTION SALES AREA ELEC EQUIP,NECB-C-ELECTRIC-EQUIPMENT,SP-RETAIL_1_FLR_1 SYS-6 FLR-2 SCH-C HPLCMT-SOUTH ZN,67.07,2.2,167.739,2.501,75.000,0.000,0.500,0.000,0.500,General,8.387,150.965
 ElectricEquipment Internal Gains Nominal, SP-RETAIL_2_FLR_1 SYS-6 FLR-2 SCH-C HPLCMT-WEST ZN SPACE FUNCTION SALES AREA ELEC EQUIP,NECB-C-ELECTRIC-EQUIPMENT,SP-RETAIL_2_FLR_1 SYS-6 FLR-2 SCH-C HPLCMT-WEST ZN,77.67,2.6,194.243,2.501,75.000,0.000,0.500,0.000,0.500,General,9.712,174.819
! <Shadowing/Sun Position Calculations Annual Simulations>, Calculation Method, Value {days}, Allowable Number Figures in Shadow Overlap {}, Polygon Clipping Algorithm, Sky Diffuse Modeling Algorithm, External Shading Calculation Method, Output External Shading Calculation Results, Disable Self-Shading Within Shading Zone Groups, Disable Self-Shading From Shading Zone Groups to Other Zones
Shadowing/Sun Position Calculations Annual Simulations,AverageOverDaysInFrequency,7,15000,SutherlandHodgman,SimpleSkyDiffuseModeling,InternalCalculation,No,No,No
! <Water Heater Information>,Type,Name,Volume {m3},Maximum Capacity {W},Standard Rated Recovery Efficiency, Standard Rated Energy Factor
! <ZoneInfiltration Airflow Stats Nominal>,Name,Schedule Name,Zone Name, Zone Floor Area {m2}, # Zone Occupants,Design Volume Flow Rate {m3/s},Volume Flow Rate/Floor Area {m3/s/m2},Volume Flow Rate/Exterior Surface Area {m3/s/m2},ACH - Air Changes per Hour,Equation A - Constant Term Coefficient {},Equation B - Temperature Term Coefficient {1/C},Equation C - Velocity Term Coefficient {s/m}, Equation D - Velocity Squared Term Coefficient {s2/m2}
 ZoneInfiltration Airflow Stats Nominal, BANQUET_FLR_6 INFILTRATION,ALWAYS ON DISCRETE,SP-BANQUET_FLR_6 SYS-3 FLR-4 SCH-B HPLCMT-NORTH ZN,331.66,33.2,0.107,3.235E-004,2.500E-004,0.382,0.000,0.000,0.224,0.000
 ZoneInfiltration Airflow Stats Nominal, CAFE_FLR_1 INFILTRATION,ALWAYS ON DISCRETE,SP-CAFE_FLR_1 SYS-6 FLR-2 SCH-C HPLCMT-SOUTH ZN,188.86,9.4,8.526E-002,4.514E-004,2.500E-004,0.410,0.000,0.000,0.224,0.000
 ZoneInfiltration Airflow Stats Nominal, CORRIDOR_FLR_3 INFILTRATION,ALWAYS ON DISCRETE,SP-CORRIDOR_FLR_3 SYS-1 FLR-3 SCH-E HPLCMT-SOUTH ZN,389.40,3.9,1.208E-002,3.101E-005,2.500E-004,3.663E-002,0.000,0.000,0.224,0.000
 ZoneInfiltration Airflow Stats Nominal, CORRIDOR_FLR_6 INFILTRATION,ALWAYS ON DISCRETE,SP-CORRIDOR_FLR_6 SYS-3 FLR-4 SCH-E HPLCMT-SOUTH ZN,412.12,4.1,0.124,3.018E-004,2.500E-004,0.357,0.000,0.000,0.224,0.000
 ZoneInfiltration Airflow Stats Nominal, DINING_FLR_6 INFILTRATION,ALWAYS ON DISCRETE,SP-DINING_FLR_6 SYS-3 FLR-4 SCH-B HPLCMT-NORTH ZN,331.66,33.2,0.107,3.235E-004,2.500E-004,0.382,0.000,0.000,0.224,0.000
 ZoneInfiltration Airflow Stats Nominal, KITCHEN_FLR_6 INFILTRATION,ALWAYS ON DISCRETE,SP-KITCHEN_FLR_6 SYS-3 FLR-4 SCH-B HPLCMT-EAST ZN,103.30,5.2,4.766E-002,4.613E-004,2.500E-004,0.545,0.000,0.000,0.224,0.000
 ZoneInfiltration Airflow Stats Nominal, LAUNDRY_FLR_1 INFILTRATION,ALWAYS ON DISCRETE,SP-LAUNDRY_FLR_1 SYS-6 FLR-2 SCH-C HPLCMT-EAST ZN,78.04,3.9,2.144E-002,2.747E-004,2.500E-004,0.250,0.000,0.000,0.224,0.000
 ZoneInfiltration Airflow Stats Nominal, LOBBY_FLR_1 INFILTRATION,ALWAYS ON DISCRETE,SP-LOBBY_FLR_1 SYS-6 FLR-2 SCH-H HPLCMT-NORTH ZN,1308.19,130.9,0.170,1.300E-004,2.500E-004,0.118,0.000,0.000,0.224,0.000
 ZoneInfiltration Airflow Stats Nominal, MECH_FLR_1 INFILTRATION,ALWAYS ON DISCRETE,SP-MECH_FLR_1 SYS-6 FLR-2 SCH-E HPLCMT-NORTH ZN,164.24,0.8,1.570E-002,9.559E-005,2.500E-004,8.685E-002,0.000,0.000,0.224,0.000
 ZoneInfiltration Airflow Stats Nominal, RETAIL_1_FLR_1 INFILTRATION,ALWAYS ON DISCRETE,SP-RETAIL_1_FLR_1 SYS-6 FLR-2 SCH-C HPLCMT-SOUTH ZN,67.07,2.2,3.398E-002,5.066E-004,2.500E-004,0.460,0.000,0.000,0.224,0.000
 ZoneInfiltration Airflow Stats Nominal, RETAIL_2_FLR_1 INFILTRATION,ALWAYS ON DISCRETE,SP-RETAIL_2_FLR_1 SYS-6 FLR-2 SCH-C HPLCMT-WEST ZN,77.67,2.6,6.643E-003,8.553E-005,2.500E-004,7.771E-002,0.000,0.000,0.224,0.000
 ZoneInfiltration Airflow Stats Nominal, ROOM_1_FLR_3 INFILTRATION,ALWAYS ON DISCRETE,SP-ROOM_1_FLR_3 SYS-1 FLR-3 SCH-F HPLCMT-WEST ZN,39.02,1.6,9.988E-003,2.559E-004,2.500E-004,0.302,0.000,0.000,0.224,0.000
 ZoneInfiltration Airflow Stats Nominal, ROOM_1_FLR_6 INFILTRATION,ALWAYS ON DISCRETE,SP-ROOM_1_FLR_6 SYS-1 FLR-4 SCH-F HPLCMT-WEST ZN,39.02,1.6,1.974E-002,5.059E-004,2.500E-004,0.598,0.000,0.000,0.224,0.000
 ZoneInfiltration Airflow Stats Nominal, ROOM_2_FLR_3 INFILTRATION,ALWAYS ON DISCRETE,SP-ROOM_2_FLR_3 SYS-1 FLR-3 SCH-F HPLCMT-WEST ZN,39.02,1.6,9.987E-003,2.560E-004,2.500E-004,0.302,0.000,0.000,0.224,0.000
 ZoneInfiltration Airflow Stats Nominal, ROOM_2_FLR_6 INFILTRATION,ALWAYS ON DISCRETE,SP-ROOM_2_FLR_6 SYS-1 FLR-4 SCH-F HPLCMT-WEST ZN,39.02,1.6,1.974E-002,5.060E-004,2.500E-004,0.598,0.000,0.000,0.224,0.000
 ZoneInfiltration Airflow Stats Nominal, ROOM_3_MULT19_FLR_3 INFILTRATION,ALWAYS ON DISCRETE,SP-ROOM_3_MULT19_FLR_3 SYS-1 FLR-3 SCH-F HPLCMT-SOUTH ZN,24.52,1.0,2.787E-003,1.136E-004,2.500E-004,0.134,0.000,0.000,0.224,0.000
 ZoneInfiltration Airflow Stats Nominal, ROOM_3_MULT9_FLR_6 INFILTRATION,ALWAYS ON DISCRETE,SP-ROOM_3_MULT9_FLR_6 SYS-1 FLR-4 SCH-F HPLCMT-SOUTH ZN,24.53,1.0,1.124E-002,4.583E-004,2.500E-004,0.541,0.000,0.000,0.224,0.000
 ZoneInfiltration Airflow Stats Nominal, ROOM_4_MULT19_FLR_3 INFILTRATION,ALWAYS ON DISCRETE,SP-ROOM_4_MULT19_FLR_3 SYS-1 FLR-3 SCH-F HPLCMT-NORTH ZN,24.53,1.0,2.787E-003,1.136E-004,2.500E-004,0.134,0.000,0.000,0.224,0.000
 ZoneInfiltration Airflow Stats Nominal, ROOM_5_FLR_3 INFILTRATION,ALWAYS ON DISCRETE,SP-ROOM_5_FLR_3 SYS-1 FLR-3 SCH-F HPLCMT-EAST ZN,39.02,1.6,9.988E-003,2.559E-004,2.500E-004,0.302,0.000,0.000,0.224,0.000
 ZoneInfiltration Airflow Stats Nominal, ROOM_6_FLR_3 INFILTRATION,ALWAYS ON DISCRETE,SP-ROOM_6_FLR_3 SYS-1 FLR-3 SCH-F HPLCMT-EAST ZN,39.02,1.6,9.987E-003,2.560E-004,2.500E-004,0.302,0.000,0.000,0.224,0.000
 ZoneInfiltration Airflow Stats Nominal, STORAGE_FLR_1 INFILTRATION,ALWAYS ON DISCRETE,SP-STORAGE_FLR_1 SYS-4 FLR-2 SCH-E HPLCMT-NORTH ZN,94.76,0.9,9.058E-003,9.559E-005,2.500E-004,8.685E-002,0.000,0.000,0.224,0.000
! <AirFlow Model>, Simple
 AirFlow Model, Simple
! <RoomAir Model>, Zone Name, Mixing/Mundt/UCSDDV/UCSDCV/UCSDUFI/UCSDUFE/User Defined
RoomAir Model,SP-BANQUET_FLR_6 SYS-3 FLR-4 SCH-B HPLCMT-NORTH ZN,Mixing/Well-Stirred
RoomAir Model,SP-BASEMENT SYS-4 FLR-1 SCH-E HPLCMT-NORTH ZN,Mixing/Well-Stirred
RoomAir Model,SP-CAFE_FLR_1 SYS-6 FLR-2 SCH-C HPLCMT-SOUTH ZN,Mixing/Well-Stirred
RoomAir Model,SP-CORRIDOR_FLR_3 SYS-1 FLR-3 SCH-E HPLCMT-SOUTH ZN,Mixing/Well-Stirred
RoomAir Model,SP-CORRIDOR_FLR_6 SYS-3 FLR-4 SCH-E HPLCMT-SOUTH ZN,Mixing/Well-Stirred
RoomAir Model,SP-DINING_FLR_6 SYS-3 FLR-4 SCH-B HPLCMT-NORTH ZN,Mixing/Well-Stirred
RoomAir Model,SP-KITCHEN_FLR_6 SYS-3 FLR-4 SCH-B HPLCMT-EAST ZN,Mixing/Well-Stirred
RoomAir Model,SP-LAUNDRY_FLR_1 SYS-6 FLR-2 SCH-C HPLCMT-EAST ZN,Mixing/Well-Stirred
RoomAir Model,SP-LOBBY_FLR_1 SYS-6 FLR-2 SCH-H HPLCMT-NORTH ZN,Mixing/Well-Stirred
RoomAir Model,SP-MECH_FLR_1 SYS-6 FLR-2 SCH-E HPLCMT-NORTH ZN,Mixing/Well-Stirred
RoomAir Model,SP-RETAIL_1_FLR_1 SYS-6 FLR-2 SCH-C HPLCMT-SOUTH ZN,Mixing/Well-Stirred
RoomAir Model,SP-RETAIL_2_FLR_1 SYS-6 FLR-2 SCH-C HPLCMT-WEST ZN,Mixing/Well-Stirred
RoomAir Model,SP-ROOM_1_FLR_3 SYS-1 FLR-3 SCH-F HPLCMT-WEST ZN,Mixing/Well-Stirred
RoomAir Model,SP-ROOM_1_FLR_6 SYS-1 FLR-4 SCH-F HPLCMT-WEST ZN,Mixing/Well-Stirred
RoomAir Model,SP-ROOM_2_FLR_3 SYS-1 FLR-3 SCH-F HPLCMT-WEST ZN,Mixing/Well-Stirred
RoomAir Model,SP-ROOM_2_FLR_6 SYS-1 FLR-4 SCH-F HPLCMT-WEST ZN,Mixing/Well-Stirred
RoomAir Model,SP-ROOM_3_MULT19_FLR_3 SYS-1 FLR-3 SCH-F HPLCMT-SOUTH ZN,Mixing/Well-Stirred
RoomAir Model,SP-ROOM_3_MULT9_FLR_6 SYS-1 FLR-4 SCH-F HPLCMT-SOUTH ZN,Mixing/Well-Stirred
RoomAir Model,SP-ROOM_4_MULT19_FLR_3 SYS-1 FLR-3 SCH-F HPLCMT-NORTH ZN,Mixing/Well-Stirred
RoomAir Model,SP-ROOM_5_FLR_3 SYS-1 FLR-3 SCH-F HPLCMT-EAST ZN,Mixing/Well-Stirred
RoomAir Model,SP-ROOM_6_FLR_3 SYS-1 FLR-3 SCH-F HPLCMT-EAST ZN,Mixing/Well-Stirred
RoomAir Model,SP-STORAGE_FLR_1 SYS-4 FLR-2 SCH-E HPLCMT-NORTH ZN,Mixing/Well-Stirred
! <AirflowNetwork Model:Control>, No Multizone or Distribution/Multizone with Distribution/Multizone without Distribution/Multizone with Distribution only during Fan Operation
AirflowNetwork Model:Control,NoMultizoneOrDistribution
! <Zone Volume Capacitance Multiplier>, Sensible Heat Capacity Multiplier, Moisture Capacity Multiplier, Carbon Dioxide Capacity Multiplier, Generic Contaminant Capacity Multiplier
Zone Volume Capacitance Multiplier,   1.000 ,   1.000,   1.000,   1.000
! <Load Timesteps in Zone Design Calculation Averaging Window>, Value
 Load Timesteps in Zone Design Calculation Averaging Window,    6
! <Heating Sizing Factor Information>, Sizing Factor ID, Value
 Heating Sizing Factor Information, Global,   1.3000    
 Heating Sizing Factor Information, Zone SP-BANQUET_FLR_6 SYS-3 FLR-4 SCH-B HPLCMT-NORTH ZN,   1.3000    
 Heating Sizing Factor Information, Zone SP-BASEMENT SYS-4 FLR-1 SCH-E HPLCMT-NORTH ZN,   1.3000    
 Heating Sizing Factor Information, Zone SP-CAFE_FLR_1 SYS-6 FLR-2 SCH-C HPLCMT-SOUTH ZN,   1.3000    
 Heating Sizing Factor Information, Zone SP-CORRIDOR_FLR_3 SYS-1 FLR-3 SCH-E HPLCMT-SOUTH ZN,   1.3000    
 Heating Sizing Factor Information, Zone SP-CORRIDOR_FLR_6 SYS-3 FLR-4 SCH-E HPLCMT-SOUTH ZN,   1.3000    
 Heating Sizing Factor Information, Zone SP-DINING_FLR_6 SYS-3 FLR-4 SCH-B HPLCMT-NORTH ZN,   1.3000    
 Heating Sizing Factor Information, Zone SP-KITCHEN_FLR_6 SYS-3 FLR-4 SCH-B HPLCMT-EAST ZN,   1.3000    
 Heating Sizing Factor Information, Zone SP-LAUNDRY_FLR_1 SYS-6 FLR-2 SCH-C HPLCMT-EAST ZN,   1.3000    
 Heating Sizing Factor Information, Zone SP-LOBBY_FLR_1 SYS-6 FLR-2 SCH-H HPLCMT-NORTH ZN,   1.3000    
 Heating Sizing Factor Information, Zone SP-MECH_FLR_1 SYS-6 FLR-2 SCH-E HPLCMT-NORTH ZN,   1.3000    
 Heating Sizing Factor Information, Zone SP-RETAIL_1_FLR_1 SYS-6 FLR-2 SCH-C HPLCMT-SOUTH ZN,   1.3000    
 Heating Sizing Factor Information, Zone SP-RETAIL_2_FLR_1 SYS-6 FLR-2 SCH-C HPLCMT-WEST ZN,   1.3000    
 Heating Sizing Factor Information, Zone SP-ROOM_1_FLR_3 SYS-1 FLR-3 SCH-F HPLCMT-WEST ZN,   1.3000    
 Heating Sizing Factor Information, Zone SP-ROOM_1_FLR_6 SYS-1 FLR-4 SCH-F HPLCMT-WEST ZN,   1.3000    
 Heating Sizing Factor Information, Zone SP-ROOM_2_FLR_3 SYS-1 FLR-3 SCH-F HPLCMT-WEST ZN,   1.3000    
 Heating Sizing Factor Information, Zone SP-ROOM_2_FLR_6 SYS-1 FLR-4 SCH-F HPLCMT-WEST ZN,   1.3000    
 Heating Sizing Factor Information, Zone SP-ROOM_3_MULT19_FLR_3 SYS-1 FLR-3 SCH-F HPLCMT-SOUTH ZN,   1.3000    
 Heating Sizing Factor Information, Zone SP-ROOM_3_MULT9_FLR_6 SYS-1 FLR-4 SCH-F HPLCMT-SOUTH ZN,   1.3000    
 Heating Sizing Factor Information, Zone SP-ROOM_4_MULT19_FLR_3 SYS-1 FLR-3 SCH-F HPLCMT-NORTH ZN,   1.3000    
 Heating Sizing Factor Information, Zone SP-ROOM_5_FLR_3 SYS-1 FLR-3 SCH-F HPLCMT-EAST ZN,   1.3000    
 Heating Sizing Factor Information, Zone SP-ROOM_6_FLR_3 SYS-1 FLR-3 SCH-F HPLCMT-EAST ZN,   1.3000    
 Heating Sizing Factor Information, Zone SP-STORAGE_FLR_1 SYS-4 FLR-2 SCH-E HPLCMT-NORTH ZN,   1.3000    
! <Cooling Sizing Factor Information>, Sizing Factor ID, Value
 Cooling Sizing Factor Information, Global,   1.1000    
 Cooling Sizing Factor Information, Zone SP-BANQUET_FLR_6 SYS-3 FLR-4 SCH-B HPLCMT-NORTH ZN,   1.1000    
 Cooling Sizing Factor Information, Zone SP-BASEMENT SYS-4 FLR-1 SCH-E HPLCMT-NORTH ZN,   1.1000    
 Cooling Sizing Factor Information, Zone SP-CAFE_FLR_1 SYS-6 FLR-2 SCH-C HPLCMT-SOUTH ZN,   1.1000    
 Cooling Sizing Factor Information, Zone SP-CORRIDOR_FLR_3 SYS-1 FLR-3 SCH-E HPLCMT-SOUTH ZN,   1.1000    
 Cooling Sizing Factor Information, Zone SP-CORRIDOR_FLR_6 SYS-3 FLR-4 SCH-E HPLCMT-SOUTH ZN,   1.1000    
 Cooling Sizing Factor Information, Zone SP-DINING_FLR_6 SYS-3 FLR-4 SCH-B HPLCMT-NORTH ZN,   1.1000    
 Cooling Sizing Factor Information, Zone SP-KITCHEN_FLR_6 SYS-3 FLR-4 SCH-B HPLCMT-EAST ZN,   1.1000    
 Cooling Sizing Factor Information, Zone SP-LAUNDRY_FLR_1 SYS-6 FLR-2 SCH-C HPLCMT-EAST ZN,   1.1000    
 Cooling Sizing Factor Information, Zone SP-LOBBY_FLR_1 SYS-6 FLR-2 SCH-H HPLCMT-NORTH ZN,   1.1000    
 Cooling Sizing Factor Information, Zone SP-MECH_FLR_1 SYS-6 FLR-2 SCH-E HPLCMT-NORTH ZN,   1.1000    
 Cooling Sizing Factor Information, Zone SP-RETAIL_1_FLR_1 SYS-6 FLR-2 SCH-C HPLCMT-SOUTH ZN,   1.1000    
 Cooling Sizing Factor Information, Zone SP-RETAIL_2_FLR_1 SYS-6 FLR-2 SCH-C HPLCMT-WEST ZN,   1.1000    
 Cooling Sizing Factor Information, Zone SP-ROOM_1_FLR_3 SYS-1 FLR-3 SCH-F HPLCMT-WEST ZN,   1.1000    
 Cooling Sizing Factor Information, Zone SP-ROOM_1_FLR_6 SYS-1 FLR-4 SCH-F HPLCMT-WEST ZN,   1.1000    
 Cooling Sizing Factor Information, Zone SP-ROOM_2_FLR_3 SYS-1 FLR-3 SCH-F HPLCMT-WEST ZN,   1.1000    
 Cooling Sizing Factor Information, Zone SP-ROOM_2_FLR_6 SYS-1 FLR-4 SCH-F HPLCMT-WEST ZN,   1.1000    
 Cooling Sizing Factor Information, Zone SP-ROOM_3_MULT19_FLR_3 SYS-1 FLR-3 SCH-F HPLCMT-SOUTH ZN,   1.1000    
 Cooling Sizing Factor Information, Zone SP-ROOM_3_MULT9_FLR_6 SYS-1 FLR-4 SCH-F HPLCMT-SOUTH ZN,   1.1000    
 Cooling Sizing Factor Information, Zone SP-ROOM_4_MULT19_FLR_3 SYS-1 FLR-3 SCH-F HPLCMT-NORTH ZN,   1.1000    
 Cooling Sizing Factor Information, Zone SP-ROOM_5_FLR_3 SYS-1 FLR-3 SCH-F HPLCMT-EAST ZN,   1.1000    
 Cooling Sizing Factor Information, Zone SP-ROOM_6_FLR_3 SYS-1 FLR-3 SCH-F HPLCMT-EAST ZN,   1.1000    
 Cooling Sizing Factor Information, Zone SP-STORAGE_FLR_1 SYS-4 FLR-2 SCH-E HPLCMT-NORTH ZN,   1.1000    
! <Zone Sizing Information>, Zone Name, Load Type, Calc Des Load {W}, User Des Load {W}, Calc Des Air Flow Rate {m3/s}, User Des Air Flow Rate {m3/s}, Design Day Name, Date/Time of Peak, Temperature at Peak {C}, Humidity Ratio at Peak {kgWater/kgDryAir}, Floor Area {m2}, # Occupants, Calc Outdoor Air Flow Rate {m3/s}, Calc DOAS Heat Addition Rate {W}
 Zone Sizing Information, SP-BANQUET_FLR_6 SYS-3 FLR-4 SCH-B HPLCMT-NORTH ZN, Cooling, 8463.46936, 9309.81629, 0.62643, 1.18780, VANCOUVER INTL AP ANN CLG .4% CONDNS DB=>MWB, 7/21 13:40:00, 24.97333, 1.06257E-002, 331.65745, 33.17780, 1.18780, 0.00000
 Zone Sizing Information, SP-BANQUET_FLR_6 SYS-3 FLR-4 SCH-B HPLCMT-NORTH ZN, Heating, 8669.30506, 11270.09657, 0.33158, 1.18780, VANCOUVER INTL AP ANN HTG 99.6% CONDNS DB, 12/21 10:00:00, -6.10000, 2.25331E-003, 331.65745, 33.17780, 1.18780, 0.00000
 Zone Sizing Information, SP-BASEMENT SYS-4 FLR-1 SCH-E HPLCMT-NORTH ZN, Cooling, 13027.52358, 14330.27594, 0.96403, 1.06044, VANCOUVER INTL AP ANN CLG .4% CONDNS DB=>MWB, 7/21 16:20:00, 24.44133, 1.06257E-002, 1978.83018, 19.79549, 0.70367, 0.00000
 Zone Sizing Information, SP-BASEMENT SYS-4 FLR-1 SCH-E HPLCMT-NORTH ZN, Heating, 0.00000, 0.00000, 0.00000, 0.70367, VANCOUVER INTL AP ANN HTG 99.6% CONDNS DB, , -6.10000, 2.25331E-003, 1978.83018, 19.79549, 0.70367, 0.00000
 Zone Sizing Information, SP-CAFE_FLR_1 SYS-6 FLR-2 SCH-C HPLCMT-SOUTH ZN, Cooling, 13056.58687, 14362.24556, 0.96623, 1.06285, VANCOUVER INTL AP ANN CLG .4% CONDNS DB=>MWB, 7/21 13:00:00, 24.72000, 1.06257E-002, 188.86188, 9.44653, 0.34539, 0.00000
 Zone Sizing Information, SP-CAFE_FLR_1 SYS-6 FLR-2 SCH-C HPLCMT-SOUTH ZN, Heating, 4601.85318, 5982.40914, 0.17525, 0.34539, VANCOUVER INTL AP ANN HTG 99.6% CONDNS DB, 12/21 09:00:00, -6.10000, 2.25331E-003, 188.86188, 9.44653, 0.34539, 0.00000
 Zone Sizing Information, SP-CORRIDOR_FLR_3 SYS-1 FLR-3 SCH-E HPLCMT-SOUTH ZN, Cooling, 25635.11040, 28198.62143, 1.89699, 2.08669, VANCOUVER INTL AP ANN CLG .4% CONDNS DB=>MWB, 7/21 14:00:00, 25.10000, 1.06257E-002, 389.40468, 3.89546, 0.47476, 0.00000
 Zone Sizing Information, SP-CORRIDOR_FLR_3 SYS-1 FLR-3 SCH-E HPLCMT-SOUTH ZN, Heating, 21082.45320, 27407.18916, 0.79814, 1.03758, VANCOUVER INTL AP ANN HTG 99.6% CONDNS DB, 12/21 09:00:00, -6.10000, 2.25331E-003, 389.40468, 3.89546, 0.47476, 0.00000
 Zone Sizing Information, SP-CORRIDOR_FLR_6 SYS-3 FLR-4 SCH-E HPLCMT-SOUTH ZN, Cooling, 11844.63511, 13029.09863, 0.87652, 0.96418, VANCOUVER INTL AP ANN CLG .4% CONDNS DB=>MWB, 7/21 13:40:00, 24.97333, 1.06257E-002, 412.12471, 4.12274, 0.12562, 0.00000
 Zone Sizing Information, SP-CORRIDOR_FLR_6 SYS-3 FLR-4 SCH-E HPLCMT-SOUTH ZN, Heating, 13803.01415, 17943.91839, 0.52942, 0.68824, VANCOUVER INTL AP ANN HTG 99.6% CONDNS DB, 12/21 09:00:00, -6.10000, 2.25331E-003, 412.12471, 4.12274, 0.12562, 0.00000
 Zone Sizing Information, SP-DINING_FLR_6 SYS-3 FLR-4 SCH-B HPLCMT-NORTH ZN, Cooling, 8645.04343, 9509.54777, 0.63987, 1.18780, VANCOUVER INTL AP ANN CLG .4% CONDNS DB=>MWB, 7/21 13:30:00, 24.91000, 1.06257E-002, 331.65745, 33.17780, 1.18780, 0.00000
 Zone Sizing Information, SP-DINING_FLR_6 SYS-3 FLR-4 SCH-B HPLCMT-NORTH ZN, Heating, 8795.29933, 11433.88913, 0.33645, 1.18780, VANCOUVER INTL AP ANN HTG 99.6% CONDNS DB, 12/21 10:00:00, -6.10000, 2.25331E-003, 331.65745, 33.17780, 1.18780, 0.00000
 Zone Sizing Information, SP-KITCHEN_FLR_6 SYS-3 FLR-4 SCH-B HPLCMT-EAST ZN, Cooling, 12145.69409, 13360.26350, 0.81475, 0.89623, VANCOUVER INTL AP ANN CLG .4% CONDNS DB=>MWB, 7/21 09:00:00, 20.92000, 1.06257E-002, 103.30446, 5.16710, 0.14169, 0.00000
 Zone Sizing Information, SP-KITCHEN_FLR_6 SYS-3 FLR-4 SCH-B HPLCMT-EAST ZN, Heating, 3992.95780, 5190.84514, 0.14293, 0.18581, VANCOUVER INTL AP ANN HTG 99.6% CONDNS DB, 12/21 09:10:00, -6.10000, 2.25331E-003, 103.30446, 5.16710, 0.14169, 0.00000
 Zone Sizing Information, SP-LAUNDRY_FLR_1 SYS-6 FLR-2 SCH-C HPLCMT-EAST ZN, Cooling, 2480.68168, 2728.74985, 0.18358, 0.20194, VANCOUVER INTL AP ANN CLG .4% CONDNS DB=>MWB, 7/21 14:20:00, 25.10000, 1.06257E-002, 78.03947, 3.90339, 6.62056E-002, 0.00000
 Zone Sizing Information, SP-LAUNDRY_FLR_1 SYS-6 FLR-2 SCH-C HPLCMT-EAST ZN, Heating, 328.89734, 427.56655, 1.22133E-002, 6.62056E-002, VANCOUVER INTL AP ANN HTG 99.6% CONDNS DB, 12/21 08:30:00, -6.10000, 2.25331E-003, 78.03947, 3.90339, 6.62056E-002, 0.00000
 Zone Sizing Information, SP-LOBBY_FLR_1 SYS-6 FLR-2 SCH-H HPLCMT-NORTH ZN, Cooling, 36262.87887, 39889.16675, 2.68394, 2.95233, VANCOUVER INTL AP ANN CLG .4% CONDNS DB=>MWB, 7/21 13:20:00, 24.84667, 1.06257E-002, 1308.18612, 130.86615, 1.88070, 0.00000
 Zone Sizing Information, SP-LOBBY_FLR_1 SYS-6 FLR-2 SCH-H HPLCMT-NORTH ZN, Heating, 0.00000, 0.00000, 0.00000, 1.88070, VANCOUVER INTL AP ANN HTG 99.6% CONDNS DB, , -6.10000, 2.25331E-003, 1308.18612, 130.86615, 1.88070, 0.00000
 Zone Sizing Information, SP-MECH_FLR_1 SYS-6 FLR-2 SCH-E HPLCMT-NORTH ZN, Cooling, 1482.36652, 1630.60317, 0.10969, 0.12066, VANCOUVER INTL AP ANN CLG .4% CONDNS DB=>MWB, 7/21 14:10:00, 25.10000, 1.06257E-002, 164.24319, 0.82151, 5.00613E-002, 0.00000
 Zone Sizing Information, SP-MECH_FLR_1 SYS-6 FLR-2 SCH-E HPLCMT-NORTH ZN, Heating, 0.00000, 0.00000, 0.00000, 5.00613E-002, VANCOUVER INTL AP ANN HTG 99.6% CONDNS DB, , -6.10000, 2.25331E-003, 164.24319, 0.82151, 5.00613E-002, 0.00000
 Zone Sizing Information, SP-RETAIL_1_FLR_1 SYS-6 FLR-2 SCH-C HPLCMT-SOUTH ZN, Cooling, 4776.75287, 5254.42816, 0.35349, 0.38884, VANCOUVER INTL AP ANN CLG .4% CONDNS DB=>MWB, 7/21 13:00:00, 24.72000, 1.06257E-002, 67.07136, 2.23652, 7.83662E-002, 0.00000
 Zone Sizing Information, SP-RETAIL_1_FLR_1 SYS-6 FLR-2 SCH-C HPLCMT-SOUTH ZN, Heating, 1780.65991, 2314.85788, 6.79088E-002, 8.82814E-002, VANCOUVER INTL AP ANN HTG 99.6% CONDNS DB, 12/21 09:00:00, -6.10000, 2.25331E-003, 67.07136, 2.23652, 7.83662E-002, 0.00000
 Zone Sizing Information, SP-RETAIL_2_FLR_1 SYS-6 FLR-2 SCH-C HPLCMT-WEST ZN, Cooling, 1928.65724, 2121.52297, 0.14272, 0.15700, VANCOUVER INTL AP ANN CLG .4% CONDNS DB=>MWB, 7/21 14:00:00, 25.10000, 1.06257E-002, 77.66889, 2.58990, 9.07483E-002, 0.00000
 Zone Sizing Information, SP-RETAIL_2_FLR_1 SYS-6 FLR-2 SCH-C HPLCMT-WEST ZN, Heating, 60.08166, 78.10616, 2.29403E-003, 9.07483E-002, VANCOUVER INTL AP ANN HTG 99.6% CONDNS DB, 12/21 08:10:00, -6.10000, 2.25331E-003, 77.66889, 2.58990, 9.07483E-002, 0.00000
 Zone Sizing Information, SP-ROOM_1_FLR_3 SYS-1 FLR-3 SCH-F HPLCMT-WEST ZN, Cooling, 13578.40718, 14936.24790, 1.00481, 1.10529, VANCOUVER INTL AP ANN CLG .4% CONDNS DB=>MWB, 7/21 17:40:00, 23.52933, 1.06257E-002, 39.02202, 1.56145, 8.72220E-002, 0.00000
 Zone Sizing Information, SP-ROOM_1_FLR_3 SYS-1 FLR-3 SCH-F HPLCMT-WEST ZN, Heating, 6406.90978, 8328.98271, 0.24612, 0.31995, VANCOUVER INTL AP ANN HTG 99.6% CONDNS DB, 12/21 09:00:00, -6.10000, 2.25331E-003, 39.02202, 1.56145, 8.72220E-002, 0.00000
 Zone Sizing Information, SP-ROOM_1_FLR_6 SYS-1 FLR-4 SCH-F HPLCMT-WEST ZN, Cooling, 3727.57756, 4100.33532, 0.27585, 0.30343, VANCOUVER INTL AP ANN CLG .4% CONDNS DB=>MWB, 7/21 17:20:00, 23.78267, 1.06257E-002, 39.02202, 1.56145, 2.18055E-002, 0.00000
 Zone Sizing Information, SP-ROOM_1_FLR_6 SYS-1 FLR-4 SCH-F HPLCMT-WEST ZN, Heating, 2040.22447, 2652.29181, 7.85034E-002, 0.10205, VANCOUVER INTL AP ANN HTG 99.6% CONDNS DB, 12/21 09:00:00, -6.10000, 2.25331E-003, 39.02202, 1.56145, 2.18055E-002, 0.00000
 Zone Sizing Information, SP-ROOM_2_FLR_3 SYS-1 FLR-3 SCH-F HPLCMT-WEST ZN, Cooling, 13263.25452, 14589.57997, 0.98149, 1.07964, VANCOUVER INTL AP ANN CLG .4% CONDNS DB=>MWB, 7/21 17:50:00, 23.40267, 1.06257E-002, 39.01745, 1.56127, 8.72118E-002, 0.00000
 Zone Sizing Information, SP-ROOM_2_FLR_3 SYS-1 FLR-3 SCH-F HPLCMT-WEST ZN, Heating, 6406.51772, 8328.47303, 0.24610, 0.31993, VANCOUVER INTL AP ANN HTG 99.6% CONDNS DB, 12/21 09:00:00, -6.10000, 2.25331E-003, 39.01745, 1.56127, 8.72118E-002, 0.00000
 Zone Sizing Information, SP-ROOM_2_FLR_6 SYS-1 FLR-4 SCH-F HPLCMT-WEST ZN, Cooling, 3542.54649, 3896.80114, 0.26216, 0.28837, VANCOUVER INTL AP ANN CLG .4% CONDNS DB=>MWB, 7/21 17:30:00, 23.65600, 1.06257E-002, 39.01745, 1.56127, 2.18029E-002, 0.00000
 Zone Sizing Information, SP-ROOM_2_FLR_6 SYS-1 FLR-4 SCH-F HPLCMT-WEST ZN, Heating, 2014.09472, 2618.32314, 7.74920E-002, 0.10074, VANCOUVER INTL AP ANN HTG 99.6% CONDNS DB, 12/21 09:00:00, -6.10000, 2.25331E-003, 39.01745, 1.56127, 2.18029E-002, 0.00000
 Zone Sizing Information, SP-ROOM_3_MULT19_FLR_3 SYS-1 FLR-3 SCH-F HPLCMT-SOUTH ZN, Cooling, 61711.57393, 67882.73132, 4.56662, 5.02328, VANCOUVER INTL AP ANN CLG .4% CONDNS DB=>MWB, 7/21 13:50:00, 25.03667, 1.06257E-002, 24.52384, 0.98131, 1.04150, 0.00000
 Zone Sizing Information, SP-ROOM_3_MULT19_FLR_3 SYS-1 FLR-3 SCH-F HPLCMT-SOUTH ZN, Heating, 54727.89890, 71146.26858, 2.09728, 2.72646, VANCOUVER INTL AP ANN HTG 99.6% CONDNS DB, 12/21 09:00:00, -6.10000, 2.25331E-003, 24.52384, 0.98131, 1.04150, 0.00000
 Zone Sizing Information, SP-ROOM_3_MULT9_FLR_6 SYS-1 FLR-4 SCH-F HPLCMT-SOUTH ZN, Cooling, 15268.80726, 16795.68799, 1.12992, 1.24291, VANCOUVER INTL AP ANN CLG .4% CONDNS DB=>MWB, 7/21 13:30:00, 24.91000, 1.06257E-002, 24.53055, 0.98158, 0.12337, 0.00000
 Zone Sizing Information, SP-ROOM_3_MULT9_FLR_6 SYS-1 FLR-4 SCH-F HPLCMT-SOUTH ZN, Heating, 11547.18852, 15011.34508, 0.44432, 0.57762, VANCOUVER INTL AP ANN HTG 99.6% CONDNS DB, 12/21 09:00:00, -6.10000, 2.25331E-003, 24.53055, 0.98158, 0.12337, 0.00000
 Zone Sizing Information, SP-ROOM_4_MULT19_FLR_3 SYS-1 FLR-3 SCH-F HPLCMT-NORTH ZN, Cooling, 19010.84246, 20911.92671, 1.40680, 1.54748, VANCOUVER INTL AP ANN CLG .4% CONDNS DB=>MWB, 7/21 20:00:00, 21.30000, 1.06257E-002, 24.53055, 0.98158, 1.04178, 0.00000
 Zone Sizing Information, SP-ROOM_4_MULT19_FLR_3 SYS-1 FLR-3 SCH-F HPLCMT-NORTH ZN, Heating, 54743.27013, 71166.25117, 2.09787, 2.72723, VANCOUVER INTL AP ANN HTG 99.6% CONDNS DB, 12/21 09:00:00, -6.10000, 2.25331E-003, 24.53055, 0.98158, 1.04178, 0.00000
 Zone Sizing Information, SP-ROOM_5_FLR_3 SYS-1 FLR-3 SCH-F HPLCMT-EAST ZN, Cooling, 12703.04185, 13973.34604, 0.94004, 1.03404, VANCOUVER INTL AP ANN CLG .4% CONDNS DB=>MWB, 7/21 09:30:00, 21.56600, 1.06257E-002, 39.02202, 1.56145, 8.72220E-002, 0.00000
 Zone Sizing Information, SP-ROOM_5_FLR_3 SYS-1 FLR-3 SCH-F HPLCMT-EAST ZN, Heating, 6444.97407, 8378.46629, 0.24759, 0.32187, VANCOUVER INTL AP ANN HTG 99.6% CONDNS DB, 12/21 09:00:00, -6.10000, 2.25331E-003, 39.02202, 1.56145, 8.72220E-002, 0.00000
 Zone Sizing Information, SP-ROOM_6_FLR_3 SYS-1 FLR-3 SCH-F HPLCMT-EAST ZN, Cooling, 12561.75500, 13817.93050, 0.92958, 1.02254, VANCOUVER INTL AP ANN CLG .4% CONDNS DB=>MWB, 7/21 09:20:00, 21.35067, 1.06257E-002, 39.01745, 1.56127, 8.72118E-002, 0.00000
 Zone Sizing Information, SP-ROOM_6_FLR_3 SYS-1 FLR-3 SCH-F HPLCMT-EAST ZN, Heating, 6444.58385, 8377.95901, 0.24758, 0.32185, VANCOUVER INTL AP ANN HTG 99.6% CONDNS DB, 12/21 09:00:00, -6.10000, 2.25331E-003, 39.01745, 1.56127, 8.72118E-002, 0.00000
 Zone Sizing Information, SP-STORAGE_FLR_1 SYS-4 FLR-2 SCH-E HPLCMT-NORTH ZN, Cooling, 1041.40511, 1145.54562, 7.70635E-002, 8.47699E-002, VANCOUVER INTL AP ANN CLG .4% CONDNS DB=>MWB, 7/21 14:00:00, 25.10000, 1.06257E-002, 94.75927, 0.94794, 3.36964E-002, 0.00000
 Zone Sizing Information, SP-STORAGE_FLR_1 SYS-4 FLR-2 SCH-E HPLCMT-NORTH ZN, Heating, 0.00000, 0.00000, 0.00000, 3.36964E-002, VANCOUVER INTL AP ANN HTG 99.6% CONDNS DB, , -6.10000, 2.25331E-003, 94.75927, 0.94794, 3.36964E-002, 0.00000
! <System Sizing Information>, System Name, Load Type, Peak Load Kind, User Design Capacity, Calc Des Air Flow Rate [m3/s], User Des Air Flow Rate [m3/s], Design Day Name, Date/Time of Peak
 System Sizing Information, MAKE-UP AIR UNIT, Cooling, Sensible, 40367.95, 14.73367, 3.07389, VANCOUVER INTL AP ANN CLG .4% CONDNS DB=>MWB, 7/21 05:00:00
 System Sizing Information, MAKE-UP AIR UNIT, Heating, Sensible, 182553.83, 8.55529, 3.07389, VANCOUVER INTL AP ANN HTG 99.6% CONDNS DB, 12/21 09:00:00
 System Sizing Information, SP-BANQUET_FLR_6 SYS-3 FLR-4 SCH-B HPLCMT-NORTH ZN NECB SYSTEM 3 PSZ, Cooling, Sensible, 17202.00, 1.18780, 1.18780, VANCOUVER INTL AP ANN CLG .4% CONDNS DB=>MWB, 7/21 05:00:00
 System Sizing Information, SP-BANQUET_FLR_6 SYS-3 FLR-4 SCH-B HPLCMT-NORTH ZN NECB SYSTEM 3 PSZ, Heating, Sensible, 70541.62, 1.18780, 1.18780, VANCOUVER INTL AP ANN HTG 99.6% CONDNS DB, 12/21 00:40:00
 System Sizing Information, SP-BASEMENT SYS-4 FLR-1 SCH-E HPLCMT-NORTH ZN NECB SYSTEM 4 PSZ, Cooling, Sensible, 14484.58, 1.06044, 1.06044, VANCOUVER INTL AP ANN CLG .4% CONDNS DB=>MWB, 7/21 05:00:00
 System Sizing Information, SP-BASEMENT SYS-4 FLR-1 SCH-E HPLCMT-NORTH ZN NECB SYSTEM 4 PSZ, Heating, Sensible, 41790.07, 0.70367, 0.70367, VANCOUVER INTL AP ANN HTG 99.6% CONDNS DB, 12/21 00:10:00
 System Sizing Information, SP-CORRIDOR_FLR_6 SYS-3 FLR-4 SCH-E HPLCMT-SOUTH ZN NECB SYSTEM 3 PSZ, Cooling, Sensible, 12975.60, 0.96418, 0.96418, VANCOUVER INTL AP ANN CLG .4% CONDNS DB=>MWB, 7/21 05:00:00
 System Sizing Information, SP-CORRIDOR_FLR_6 SYS-3 FLR-4 SCH-E HPLCMT-SOUTH ZN NECB SYSTEM 3 PSZ, Heating, Sensible, 21843.50, 0.68824, 0.68824, VANCOUVER INTL AP ANN HTG 99.6% CONDNS DB, 12/21 09:00:00
 System Sizing Information, SP-DINING_FLR_6 SYS-3 FLR-4 SCH-B HPLCMT-NORTH ZN NECB SYSTEM 3 PSZ, Cooling, Sensible, 17111.01, 1.18780, 1.18780, VANCOUVER INTL AP ANN CLG .4% CONDNS DB=>MWB, 7/21 05:00:00
 System Sizing Information, SP-DINING_FLR_6 SYS-3 FLR-4 SCH-B HPLCMT-NORTH ZN NECB SYSTEM 3 PSZ, Heating, Sensible, 70541.62, 1.18780, 1.18780, VANCOUVER INTL AP ANN HTG 99.6% CONDNS DB, 12/21 01:00:00
 System Sizing Information, SP-KITCHEN_FLR_6 SYS-3 FLR-4 SCH-B HPLCMT-EAST ZN NECB SYSTEM 3 PSZ, Cooling, Sensible, 11644.79, 0.89623, 0.89623, VANCOUVER INTL AP ANN CLG .4% CONDNS DB=>MWB, 7/21 05:00:00
 System Sizing Information, SP-KITCHEN_FLR_6 SYS-3 FLR-4 SCH-B HPLCMT-EAST ZN NECB SYSTEM 3 PSZ, Heating, Sensible, 9629.80, 0.18581, 0.18581, VANCOUVER INTL AP ANN HTG 99.6% CONDNS DB, 12/21 09:50:00
 System Sizing Information, SP-STORAGE_FLR_1 SYS-4 FLR-2 SCH-E HPLCMT-NORTH ZN NECB SYSTEM 4 PSZ, Cooling, Sensible, 1172.68, 8.47699E-002, 8.47699E-002, VANCOUVER INTL AP ANN CLG .4% CONDNS DB=>MWB, 7/21 05:00:00
 System Sizing Information, SP-STORAGE_FLR_1 SYS-4 FLR-2 SCH-E HPLCMT-NORTH ZN NECB SYSTEM 4 PSZ, Heating, Sensible, 2001.18, 3.36964E-002, 3.36964E-002, VANCOUVER INTL AP ANN HTG 99.6% CONDNS DB, 12/21 00:10:00
 System Sizing Information, VAV WITH REHEAT, Cooling, Sensible, 67504.67, 4.88362, 4.88362, VANCOUVER INTL AP ANN CLG .4% CONDNS DB=>MWB, 7/21 00:00:00
 System Sizing Information, VAV WITH REHEAT, Heating, Sensible, 58218.38, 2.52139, 2.52139, VANCOUVER INTL AP ANN HTG 99.6% CONDNS DB, 12/21 09:00:00
! <Component Sizing Information>, Component Type, Component Name, Input Field Description, Value
 Component Sizing Information, AirTerminal:SingleDuct:Uncontrolled, AIR TERMINAL SINGLE DUCT UNCONTROLLED 11, Design Size Maximum Air Flow Rate [m3/s], 1.18780
 Component Sizing Information, ZoneHVAC:Baseboard:Convective:Water, ZONE HVAC BASEBOARD CONVECTIVE WATER 11, Design Size Maximum Water Flow Rate [m3/s], 1.68328E-004
 Component Sizing Information, ZoneHVAC:Baseboard:Convective:Water, ZONE HVAC BASEBOARD CONVECTIVE WATER 11, Design Size U-Factor Times Area Value [W/K], 343.60215
 Component Sizing Information, AirTerminal:SingleDuct:Uncontrolled, AIR TERMINAL SINGLE DUCT UNCONTROLLED 15, Design Size Maximum Air Flow Rate [m3/s], 1.06044
 Component Sizing Information, ZoneHVAC:Baseboard:Convective:Water, ZONE HVAC BASEBOARD CONVECTIVE WATER 15, Design Size Maximum Water Flow Rate [m3/s], 0.00000
 Component Sizing Information, ZoneHVAC:Baseboard:Convective:Water, ZONE HVAC BASEBOARD CONVECTIVE WATER 15, Design Size U-Factor Times Area Value [W/K], 0.00000
 Component Sizing Information, AirTerminal:SingleDuct:VAV:Reheat, AIR TERMINAL SINGLE DUCT VAV REHEAT 1, Design Size Maximum Air Flow Rate [m3/s], 1.06285
 Component Sizing Information, AirTerminal:SingleDuct:VAV:Reheat, AIR TERMINAL SINGLE DUCT VAV REHEAT 1, Design Size Constant Minimum Air Flow Fraction, 0.13540
 Component Sizing Information, AirTerminal:SingleDuct:VAV:Reheat, AIR TERMINAL SINGLE DUCT VAV REHEAT 1, User-Specified Constant Minimum Air Flow Fraction, 0.30000
 Component Sizing Information, AirTerminal:SingleDuct:VAV:Reheat, AIR TERMINAL SINGLE DUCT VAV REHEAT 1, Design Size Minimum Air Flow Rate [m3/s], 0.31886
 Component Sizing Information, AirTerminal:SingleDuct:VAV:Reheat, AIR TERMINAL SINGLE DUCT VAV REHEAT 1, Design Size Maximum Flow per Zone Floor Area during Reheat [m3/s-m2], 1.68830E-003
 Component Sizing Information, AirTerminal:SingleDuct:VAV:Reheat, AIR TERMINAL SINGLE DUCT VAV REHEAT 1, Design Size Maximum Flow Fraction during Reheat [], 0.30000
 Component Sizing Information, AirTerminal:SingleDuct:VAV:Reheat, AIR TERMINAL SINGLE DUCT VAV REHEAT 1, Design Size Maximum Reheat Water Flow Rate [m3/s], 1.43686E-004
 Component Sizing Information, AirTerminal:SingleDuct:VAV:Reheat, AIR TERMINAL SINGLE DUCT VAV REHEAT 1, Design Size Reheat Coil Sizing Air Volume Flow Rate [m3/s], 0.31886
 Component Sizing Information, AirTerminal:SingleDuct:VAV:Reheat, AIR TERMINAL SINGLE DUCT VAV REHEAT 1, Design Size Reheat Coil Sizing Inlet Air Temperature [C], 13.10000
 Component Sizing Information, AirTerminal:SingleDuct:VAV:Reheat, AIR TERMINAL SINGLE DUCT VAV REHEAT 1, Design Size Reheat Coil Sizing Inlet Air Humidity Ratio [kgWater/kgDryAir], 8.00000E-003
 Component Sizing Information, Coil:Heating:Water, COIL HEATING WATER 3, Design Size Rated Capacity [W], 9620.20119
 Component Sizing Information, Coil:Heating:Water, COIL HEATING WATER 3, Design Size Maximum Water Flow Rate [m3/s], 1.43686E-004
 Component Sizing Information, Coil:Heating:Water, COIL HEATING WATER 3, Design Size U-Factor Times Area Value [W/K], 204.99026
! <Water Heating Coil Capacity Information>,Component Type,Name,Nominal Total Capacity {W}
Water Heating Coil Capacity Information,Coil:Heating:Water,COIL HEATING WATER 3,9023.61
 Component Sizing Information, ZoneHVAC:Baseboard:Convective:Water, ZONE HVAC BASEBOARD CONVECTIVE WATER 17, Design Size Maximum Water Flow Rate [m3/s], 8.93521E-005
 Component Sizing Information, ZoneHVAC:Baseboard:Convective:Water, ZONE HVAC BASEBOARD CONVECTIVE WATER 17, Design Size U-Factor Times Area Value [W/K], 182.42507
 Component Sizing Information, ZoneHVAC:PackagedTerminalAirConditioner, SP-CORRIDOR_FLR_3 SYS-1 FLR-3 SCH-E HPLCMT-SOUTH ZN PTAC, Design Size Cooling Supply Air Flow Rate [m3/s], 2.08669
 Component Sizing Information, ZoneHVAC:PackagedTerminalAirConditioner, SP-CORRIDOR_FLR_3 SYS-1 FLR-3 SCH-E HPLCMT-SOUTH ZN PTAC, Design Size Heating Supply Air Flow Rate [m3/s], 2.08669
 Component Sizing Information, ZoneHVAC:PackagedTerminalAirConditioner, SP-CORRIDOR_FLR_3 SYS-1 FLR-3 SCH-E HPLCMT-SOUTH ZN PTAC, Design Size No Load Supply Air Flow Rate [m3/s], 2.08669
 Component Sizing Information, ZoneHVAC:PackagedTerminalAirConditioner, SP-CORRIDOR_FLR_3 SYS-1 FLR-3 SCH-E HPLCMT-SOUTH ZN PTAC, Design Size Outdoor Air Flow Rate During Cooling Operation [m3/s], 0.47476
 Component Sizing Information, ZoneHVAC:PackagedTerminalAirConditioner, SP-CORRIDOR_FLR_3 SYS-1 FLR-3 SCH-E HPLCMT-SOUTH ZN PTAC, Design Size Outdoor Air Flow Rate During Heating Operation [m3/s], 0.47476
 Component Sizing Information, ZoneHVAC:PackagedTerminalAirConditioner, SP-CORRIDOR_FLR_3 SYS-1 FLR-3 SCH-E HPLCMT-SOUTH ZN PTAC, Design Size Outdoor Air Flow Rate When No Cooling or Heating is Needed [m3/s], 0.47476
 Component Sizing Information, Coil:Cooling:DX:SingleSpeed, COIL COOLING DX SINGLE SPEED 2, Design Size Rated Air Flow Rate [m3/s], 2.08669
 Component Sizing Information, Coil:Cooling:DX:SingleSpeed, COIL COOLING DX SINGLE SPEED 2, Design Size Gross Rated Total Cooling Capacity [W], 34542.07752
 Component Sizing Information, Coil:Cooling:DX:SingleSpeed, COIL COOLING DX SINGLE SPEED 2, Design Size Gross Rated Sensible Heat Ratio, 0.80066
! <DX Cooling Coil Standard Rating Information>, Component Type, Component Name, Standard Rating (Net) Cooling Capacity {W}, Standard Rated Net COP {W/W}, EER {Btu/W-h}, SEER {Btu/W-h}, IEER {Btu/W-h}
 DX Cooling Coil Standard Rating Information, Coil:Cooling:DX:SingleSpeed, COIL COOLING DX SINGLE SPEED 2, 32922.0, 2.51, 8.56, 9.04, 8.63
 Component Sizing Information, Coil:Heating:Electric, COIL HEATING ELECTRIC 1, Design Size Nominal Capacity [W], 43119.35261
 Component Sizing Information, Fan:ConstantVolume, FAN CONSTANT VOLUME 2, Design Size Maximum Flow Rate [m3/s], 2.08669
 Component Sizing Information, ZoneHVAC:Baseboard:Convective:Water, ZONE HVAC BASEBOARD CONVECTIVE WATER 1, Design Size Maximum Water Flow Rate [m3/s], 4.09349E-004
 Component Sizing Information, ZoneHVAC:Baseboard:Convective:Water, ZONE HVAC BASEBOARD CONVECTIVE WATER 1, Design Size U-Factor Times Area Value [W/K], 835.01692
 Component Sizing Information, AirTerminal:SingleDuct:Uncontrolled, AIR TERMINAL SINGLE DUCT UNCONTROLLED 1, Design Size Maximum Air Flow Rate [m3/s], 0.47476
 Component Sizing Information, AirTerminal:SingleDuct:Uncontrolled, AIR TERMINAL SINGLE DUCT UNCONTROLLED 14, Design Size Maximum Air Flow Rate [m3/s], 0.96418
 Component Sizing Information, ZoneHVAC:Baseboard:Convective:Water, ZONE HVAC BASEBOARD CONVECTIVE WATER 14, Design Size Maximum Water Flow Rate [m3/s], 2.68007E-004
 Component Sizing Information, ZoneHVAC:Baseboard:Convective:Water, ZONE HVAC BASEBOARD CONVECTIVE WATER 14, Design Size U-Factor Times Area Value [W/K], 547.04151
 Component Sizing Information, AirTerminal:SingleDuct:Uncontrolled, AIR TERMINAL SINGLE DUCT UNCONTROLLED 12, Design Size Maximum Air Flow Rate [m3/s], 1.18780
 Component Sizing Information, ZoneHVAC:Baseboard:Convective:Water, ZONE HVAC BASEBOARD CONVECTIVE WATER 12, Design Size Maximum Water Flow Rate [m3/s], 1.70774E-004
 Component Sizing Information, ZoneHVAC:Baseboard:Convective:Water, ZONE HVAC BASEBOARD CONVECTIVE WATER 12, Design Size U-Factor Times Area Value [W/K], 348.59216
 Component Sizing Information, AirTerminal:SingleDuct:Uncontrolled, AIR TERMINAL SINGLE DUCT UNCONTROLLED 13, Design Size Maximum Air Flow Rate [m3/s], 0.89623
 Component Sizing Information, ZoneHVAC:Baseboard:Convective:Water, ZONE HVAC BASEBOARD CONVECTIVE WATER 13, Design Size Maximum Water Flow Rate [m3/s], 7.75295E-005
 Component Sizing Information, ZoneHVAC:Baseboard:Convective:Water, ZONE HVAC BASEBOARD CONVECTIVE WATER 13, Design Size U-Factor Times Area Value [W/K], 141.33751
 Component Sizing Information, AirTerminal:SingleDuct:VAV:Reheat, AIR TERMINAL SINGLE DUCT VAV REHEAT 2, Design Size Maximum Air Flow Rate [m3/s], 0.20194
 Component Sizing Information, AirTerminal:SingleDuct:VAV:Reheat, AIR TERMINAL SINGLE DUCT VAV REHEAT 2, Design Size Constant Minimum Air Flow Fraction, 0.29448
 Component Sizing Information, AirTerminal:SingleDuct:VAV:Reheat, AIR TERMINAL SINGLE DUCT VAV REHEAT 2, User-Specified Constant Minimum Air Flow Fraction, 0.30000
 Component Sizing Information, AirTerminal:SingleDuct:VAV:Reheat, AIR TERMINAL SINGLE DUCT VAV REHEAT 2, Design Size Minimum Air Flow Rate [m3/s], 6.05812E-002
 Component Sizing Information, AirTerminal:SingleDuct:VAV:Reheat, AIR TERMINAL SINGLE DUCT VAV REHEAT 2, Design Size Maximum Flow per Zone Floor Area during Reheat [m3/s-m2], 7.76289E-004
 Component Sizing Information, AirTerminal:SingleDuct:VAV:Reheat, AIR TERMINAL SINGLE DUCT VAV REHEAT 2, Design Size Maximum Flow Fraction during Reheat [], 0.30000
 Component Sizing Information, AirTerminal:SingleDuct:VAV:Reheat, AIR TERMINAL SINGLE DUCT VAV REHEAT 2, Design Size Maximum Reheat Water Flow Rate [m3/s], 1.66553E-005
 Component Sizing Information, AirTerminal:SingleDuct:VAV:Reheat, AIR TERMINAL SINGLE DUCT VAV REHEAT 2, Design Size Reheat Coil Sizing Air Volume Flow Rate [m3/s], 6.05812E-002
 Component Sizing Information, AirTerminal:SingleDuct:VAV:Reheat, AIR TERMINAL SINGLE DUCT VAV REHEAT 2, Design Size Reheat Coil Sizing Inlet Air Temperature [C], 13.10000
 Component Sizing Information, AirTerminal:SingleDuct:VAV:Reheat, AIR TERMINAL SINGLE DUCT VAV REHEAT 2, Design Size Reheat Coil Sizing Inlet Air Humidity Ratio [kgWater/kgDryAir], 8.00000E-003
 Component Sizing Information, Coil:Heating:Water, COIL HEATING WATER 4, Design Size Rated Capacity [W], 1115.12826
 Component Sizing Information, Coil:Heating:Water, COIL HEATING WATER 4, Design Size Maximum Water Flow Rate [m3/s], 1.66553E-005
 Component Sizing Information, Coil:Heating:Water, COIL HEATING WATER 4, Design Size U-Factor Times Area Value [W/K], 21.72157
Water Heating Coil Capacity Information,Coil:Heating:Water,COIL HEATING WATER 4,1045.03
 Component Sizing Information, ZoneHVAC:Baseboard:Convective:Water, ZONE HVAC BASEBOARD CONVECTIVE WATER 18, Design Size Maximum Water Flow Rate [m3/s], 6.38605E-006
 Component Sizing Information, ZoneHVAC:Baseboard:Convective:Water, ZONE HVAC BASEBOARD CONVECTIVE WATER 18, Design Size U-Factor Times Area Value [W/K], 13.09846
 Component Sizing Information, AirTerminal:SingleDuct:VAV:Reheat, AIR TERMINAL SINGLE DUCT VAV REHEAT 3, Design Size Maximum Air Flow Rate [m3/s], 2.95233
 Component Sizing Information, AirTerminal:SingleDuct:VAV:Reheat, AIR TERMINAL SINGLE DUCT VAV REHEAT 3, Design Size Constant Minimum Air Flow Fraction, 0.33764
 Component Sizing Information, AirTerminal:SingleDuct:VAV:Reheat, AIR TERMINAL SINGLE DUCT VAV REHEAT 3, User-Specified Constant Minimum Air Flow Fraction, 0.30000
 Component Sizing Information, AirTerminal:SingleDuct:VAV:Reheat, AIR TERMINAL SINGLE DUCT VAV REHEAT 3, Design Size Minimum Air Flow Rate [m3/s], 0.88570
 Component Sizing Information, AirTerminal:SingleDuct:VAV:Reheat, AIR TERMINAL SINGLE DUCT VAV REHEAT 3, Design Size Maximum Flow per Zone Floor Area during Reheat [m3/s-m2], 6.77044E-004
 Component Sizing Information, AirTerminal:SingleDuct:VAV:Reheat, AIR TERMINAL SINGLE DUCT VAV REHEAT 3, Design Size Maximum Flow Fraction during Reheat [], 0.30000
 Component Sizing Information, AirTerminal:SingleDuct:VAV:Reheat, AIR TERMINAL SINGLE DUCT VAV REHEAT 3, Design Size Maximum Reheat Water Flow Rate [m3/s], 1.46965E-004
 Component Sizing Information, AirTerminal:SingleDuct:VAV:Reheat, AIR TERMINAL SINGLE DUCT VAV REHEAT 3, Design Size Reheat Coil Sizing Air Volume Flow Rate [m3/s], 0.88570
 Component Sizing Information, AirTerminal:SingleDuct:VAV:Reheat, AIR TERMINAL SINGLE DUCT VAV REHEAT 3, Design Size Reheat Coil Sizing Inlet Air Temperature [C], 13.10000
 Component Sizing Information, AirTerminal:SingleDuct:VAV:Reheat, AIR TERMINAL SINGLE DUCT VAV REHEAT 3, Design Size Reheat Coil Sizing Inlet Air Humidity Ratio [kgWater/kgDryAir], 8.00000E-003
 Component Sizing Information, Coil:Heating:Water, COIL HEATING WATER 5, Design Size Rated Capacity [W], 9839.75012
 Component Sizing Information, Coil:Heating:Water, COIL HEATING WATER 5, Design Size Maximum Water Flow Rate [m3/s], 1.46965E-004
 Component Sizing Information, Coil:Heating:Water, COIL HEATING WATER 5, Design Size U-Factor Times Area Value [W/K], 177.41397
Water Heating Coil Capacity Information,Coil:Heating:Water,COIL HEATING WATER 5,9225.73
 Component Sizing Information, ZoneHVAC:Baseboard:Convective:Water, ZONE HVAC BASEBOARD CONVECTIVE WATER 19, Design Size Maximum Water Flow Rate [m3/s], 0.00000
 Component Sizing Information, ZoneHVAC:Baseboard:Convective:Water, ZONE HVAC BASEBOARD CONVECTIVE WATER 19, Design Size U-Factor Times Area Value [W/K], 0.00000
 Component Sizing Information, AirTerminal:SingleDuct:VAV:Reheat, AIR TERMINAL SINGLE DUCT VAV REHEAT 4, Design Size Maximum Air Flow Rate [m3/s], 0.12066
 Component Sizing Information, AirTerminal:SingleDuct:VAV:Reheat, AIR TERMINAL SINGLE DUCT VAV REHEAT 4, Design Size Constant Minimum Air Flow Fraction, 1.00000
 Component Sizing Information, AirTerminal:SingleDuct:VAV:Reheat, AIR TERMINAL SINGLE DUCT VAV REHEAT 4, User-Specified Constant Minimum Air Flow Fraction, 0.30000
 Component Sizing Information, AirTerminal:SingleDuct:VAV:Reheat, AIR TERMINAL SINGLE DUCT VAV REHEAT 4, Design Size Minimum Air Flow Rate [m3/s], 3.61988E-002
 Component Sizing Information, AirTerminal:SingleDuct:VAV:Reheat, AIR TERMINAL SINGLE DUCT VAV REHEAT 4, Design Size Maximum Flow per Zone Floor Area during Reheat [m3/s-m2], 2.20398E-004
 Component Sizing Information, AirTerminal:SingleDuct:VAV:Reheat, AIR TERMINAL SINGLE DUCT VAV REHEAT 4, Design Size Maximum Flow Fraction during Reheat [], 0.30000
 Component Sizing Information, AirTerminal:SingleDuct:VAV:Reheat, AIR TERMINAL SINGLE DUCT VAV REHEAT 4, Design Size Maximum Reheat Water Flow Rate [m3/s], 6.00649E-006
 Component Sizing Information, AirTerminal:SingleDuct:VAV:Reheat, AIR TERMINAL SINGLE DUCT VAV REHEAT 4, Design Size Reheat Coil Sizing Air Volume Flow Rate [m3/s], 3.61988E-002
 Component Sizing Information, AirTerminal:SingleDuct:VAV:Reheat, AIR TERMINAL SINGLE DUCT VAV REHEAT 4, Design Size Reheat Coil Sizing Inlet Air Temperature [C], 13.10000
 Component Sizing Information, AirTerminal:SingleDuct:VAV:Reheat, AIR TERMINAL SINGLE DUCT VAV REHEAT 4, Design Size Reheat Coil Sizing Inlet Air Humidity Ratio [kgWater/kgDryAir], 8.00000E-003
 Component Sizing Information, Coil:Heating:Water, COIL HEATING WATER 6, Design Size Rated Capacity [W], 402.15385
 Component Sizing Information, Coil:Heating:Water, COIL HEATING WATER 6, Design Size Maximum Water Flow Rate [m3/s], 6.00649E-006
 Component Sizing Information, Coil:Heating:Water, COIL HEATING WATER 6, Design Size U-Factor Times Area Value [W/K], 7.25097
Water Heating Coil Capacity Information,Coil:Heating:Water,COIL HEATING WATER 6,377.06
 Component Sizing Information, ZoneHVAC:Baseboard:Convective:Water, ZONE HVAC BASEBOARD CONVECTIVE WATER 20, Design Size Maximum Water Flow Rate [m3/s], 0.00000
 Component Sizing Information, ZoneHVAC:Baseboard:Convective:Water, ZONE HVAC BASEBOARD CONVECTIVE WATER 20, Design Size U-Factor Times Area Value [W/K], 0.00000
 Component Sizing Information, AirTerminal:SingleDuct:VAV:Reheat, AIR TERMINAL SINGLE DUCT VAV REHEAT 5, Design Size Maximum Air Flow Rate [m3/s], 0.38884
 Component Sizing Information, AirTerminal:SingleDuct:VAV:Reheat, AIR TERMINAL SINGLE DUCT VAV REHEAT 5, Design Size Constant Minimum Air Flow Fraction, 0.13144
 Component Sizing Information, AirTerminal:SingleDuct:VAV:Reheat, AIR TERMINAL SINGLE DUCT VAV REHEAT 5, User-Specified Constant Minimum Air Flow Fraction, 0.30000
 Component Sizing Information, AirTerminal:SingleDuct:VAV:Reheat, AIR TERMINAL SINGLE DUCT VAV REHEAT 5, Design Size Minimum Air Flow Rate [m3/s], 0.11665
 Component Sizing Information, AirTerminal:SingleDuct:VAV:Reheat, AIR TERMINAL SINGLE DUCT VAV REHEAT 5, Design Size Maximum Flow per Zone Floor Area during Reheat [m3/s-m2], 1.73921E-003
 Component Sizing Information, AirTerminal:SingleDuct:VAV:Reheat, AIR TERMINAL SINGLE DUCT VAV REHEAT 5, Design Size Maximum Flow Fraction during Reheat [], 0.30000
 Component Sizing Information, AirTerminal:SingleDuct:VAV:Reheat, AIR TERMINAL SINGLE DUCT VAV REHEAT 5, Design Size Maximum Reheat Water Flow Rate [m3/s], 5.44838E-005
 Component Sizing Information, AirTerminal:SingleDuct:VAV:Reheat, AIR TERMINAL SINGLE DUCT VAV REHEAT 5, Design Size Reheat Coil Sizing Air Volume Flow Rate [m3/s], 0.11665
 Component Sizing Information, AirTerminal:SingleDuct:VAV:Reheat, AIR TERMINAL SINGLE DUCT VAV REHEAT 5, Design Size Reheat Coil Sizing Inlet Air Temperature [C], 13.10000
 Component Sizing Information, AirTerminal:SingleDuct:VAV:Reheat, AIR TERMINAL SINGLE DUCT VAV REHEAT 5, Design Size Reheat Coil Sizing Inlet Air Humidity Ratio [kgWater/kgDryAir], 8.00000E-003
 Component Sizing Information, Coil:Heating:Water, COIL HEATING WATER 7, Design Size Rated Capacity [W], 3647.86338
 Component Sizing Information, Coil:Heating:Water, COIL HEATING WATER 7, Design Size Maximum Water Flow Rate [m3/s], 5.44838E-005
 Component Sizing Information, Coil:Heating:Water, COIL HEATING WATER 7, Design Size U-Factor Times Area Value [W/K], 78.43307
Water Heating Coil Capacity Information,Coil:Heating:Water,COIL HEATING WATER 7,3421.27
 Component Sizing Information, ZoneHVAC:Baseboard:Convective:Water, ZONE HVAC BASEBOARD CONVECTIVE WATER 21, Design Size Maximum Water Flow Rate [m3/s], 3.45743E-005
 Component Sizing Information, ZoneHVAC:Baseboard:Convective:Water, ZONE HVAC BASEBOARD CONVECTIVE WATER 21, Design Size U-Factor Times Area Value [W/K], 70.58786
[...]
 Component Sizing Information, Coil:Heating:Fuel, COIL HEATING GAS 6, Design Size Nominal Capacity [W], 3298.46747
 Component Sizing Information, Fan:ConstantVolume, FAN CONSTANT VOLUME 17, Design Size Maximum Flow Rate [m3/s], 8.47699E-002
 Component Sizing Information, Fan:VariableVolume, SYS6 RETURN FAN, Design Size Maximum Flow Rate [m3/s], 4.88362
 Component Sizing Information, Controller:OutdoorAir, CONTROLLER OUTDOOR AIR 8, Maximum Outdoor Air Flow Rate [m3/s], 4.88362
 Component Sizing Information, Controller:OutdoorAir, CONTROLLER OUTDOOR AIR 8, Minimum Outdoor Air Flow Rate [m3/s], 2.51147
 Component Sizing Information, Coil:Cooling:Water, COIL COOLING WATER 1, Design Size Design Coil Load [W], 101521.91039
 Component Sizing Information, Coil:Cooling:Water, COIL COOLING WATER 1, Design Size Design Water Flow Rate [m3/s], 4.03098E-003
 Component Sizing Information, Coil:Cooling:Water, COIL COOLING WATER 1, Design Size Design Air Flow Rate [m3/s], 4.88362
 Component Sizing Information, Coil:Cooling:Water, COIL COOLING WATER 1, Design Size Design Inlet Air Temperature [C], 24.42801
 Component Sizing Information, Coil:Cooling:Water, COIL COOLING WATER 1, Design Size Design Inlet Water Temperature [C], 7.00000
 Component Sizing Information, Coil:Cooling:Water, COIL COOLING WATER 1, Design Size Design Outlet Air Temperature [C], 13.00000
 Component Sizing Information, Coil:Cooling:Water, COIL COOLING WATER 1, Design Size Design Inlet Air Humidity Ratio, 9.88578E-003
 Component Sizing Information, Coil:Cooling:Water, COIL COOLING WATER 1, Design Size Design Outlet Air Humidity Ratio, 8.39074E-003
! <Water Cooling Coil Capacity Information>,Component Type,Name,Nominal Total Capacity {W},Nominal Sensible Capacity {W},Nominal Latent Capacity {W},Nominal Sensible Heat Ratio, Nominal Coil UA Value {W/C}, Nominal Coil Surface Area {m2}
Water Cooling Coil Capacity Information,Coil:Cooling:Water,COIL COOLING WATER 1,125520.84,87224.30,38296.53,0.69,14940.88,151.54
 Component Sizing Information, Coil:Heating:Water, COIL HEATING WATER 2, Design Size Rated Capacity [W], 34024.01553
 Component Sizing Information, Coil:Heating:Water, COIL HEATING WATER 2, Design Size Maximum Water Flow Rate [m3/s], 5.08176E-004
 Component Sizing Information, Coil:Heating:Water, COIL HEATING WATER 2, Design Size U-Factor Times Area Value [W/K], 508.54590
Water Heating Coil Capacity Information,Coil:Heating:Water,COIL HEATING WATER 2,25406.92
 Component Sizing Information, Fan:VariableVolume, SYS6 SUPPLY FAN, Design Size Maximum Flow Rate [m3/s], 4.88362
 Component Sizing Information, Controller:WaterCoil, CONTROLLER WATER COIL 3, Maximum Actuated Flow [m3/s], 4.03098E-003
 Component Sizing Information, Controller:WaterCoil, CONTROLLER WATER COIL 3, Controller Convergence Tolerance, 1.18133E-004
 Component Sizing Information, Controller:WaterCoil, CONTROLLER WATER COIL 2, Maximum Actuated Flow [m3/s], 5.08176E-004
 Component Sizing Information, Controller:WaterCoil, CONTROLLER WATER COIL 2, Controller Convergence Tolerance, 9.37058E-004
Water Heater Information,WaterHeater:Mixed,379GAL NATURALGAS WATER HEATER - 597KBTU/HR,1.4336,175058.9,0.457,0.6788
 Component Sizing Information, PlantLoop, CHILLED WATER LOOP, Maximum Loop Flow Rate [m3/s], 4.03098E-003
 Component Sizing Information, PlantLoop, CHILLED WATER LOOP, Plant Loop Volume [m3], 0.48372
 Component Sizing Information, Pump:ConstantSpeed, PUMP CONSTANT SPEED 1, Design Flow Rate [m3/s], 4.03098E-003
 Component Sizing Information, Pump:ConstantSpeed, PUMP CONSTANT SPEED 1, Design Power Consumption [W], 1029.86313
 Component Sizing Information, Chiller:Electric:EIR, PRIMARY CHILLER WATERCOOLED SCROLL, Design Size Reference Chilled Water Flow Rate [m3/s], 4.03098E-003
 Component Sizing Information, Chiller:Electric:EIR, PRIMARY CHILLER WATERCOOLED SCROLL, Design Size Reference Capacity [W], 101520.21755
 Component Sizing Information, Chiller:Electric:EIR, PRIMARY CHILLER WATERCOOLED SCROLL, Design Size Reference Condenser Fluid Flow Rate [m3/s], 4.78445E-003
! <Chiller Standard Rating Information>, Component Type, Component Name, IPLV in SI Units {W/W}, IPLV in IP Units {Btu/W-h}
 Chiller Standard Rating Information, Chiller:Electric:EIR, PRIMARY CHILLER WATERCOOLED SCROLL, 7.88, 26.88
 Component Sizing Information, Chiller:Electric:EIR, SECONDARY CHILLER WATERCOOLED SCROLL, Design Size Reference Chilled Water Flow Rate [m3/s], 4.03098E-003
 Component Sizing Information, Chiller:Electric:EIR, SECONDARY CHILLER WATERCOOLED SCROLL, Design Size Reference Capacity [W], 101520.21755
 Component Sizing Information, Chiller:Electric:EIR, SECONDARY CHILLER WATERCOOLED SCROLL, Design Size Reference Condenser Fluid Flow Rate [m3/s], 4.78445E-003
 Chiller Standard Rating Information, Chiller:Electric:EIR, SECONDARY CHILLER WATERCOOLED SCROLL, 7.88, 26.88
 Component Sizing Information, PlantLoop, CONDENSER WATER LOOP, Maximum Loop Flow Rate [m3/s], 9.56891E-003
 Component Sizing Information, PlantLoop, CONDENSER WATER LOOP, Plant Loop Volume [m3], 1.14827
 Component Sizing Information, Pump:ConstantSpeed, PUMP CONSTANT SPEED 2, Design Flow Rate [m3/s], 9.56891E-003
 Component Sizing Information, Pump:ConstantSpeed, PUMP CONSTANT SPEED 2, Design Power Consumption [W], 2444.73365
 Component Sizing Information, CoolingTower:SingleSpeed, COOLING TOWER SINGLE SPEED 1, Design Water Flow Rate [m3/s], 9.56891E-003
 Component Sizing Information, CoolingTower:SingleSpeed, COOLING TOWER SINGLE SPEED 1, Fan Power at Design Air Flow Rate [W], 2099.58250
 Component Sizing Information, CoolingTower:SingleSpeed, COOLING TOWER SINGLE SPEED 1, Design Air Flow Rate [m3/s], 5.52803
 Component Sizing Information, CoolingTower:SingleSpeed, COOLING TOWER SINGLE SPEED 1, U-Factor Times Area Value at Design Air Flow Rate [W/C], 10933.39818
 Component Sizing Information, CoolingTower:SingleSpeed, COOLING TOWER SINGLE SPEED 1, Free Convection Regime Air Flow Rate [m3/s], 0.55280
 Component Sizing Information, CoolingTower:SingleSpeed, COOLING TOWER SINGLE SPEED 1, Free Convection U-Factor Times Area Value [W/K], 1093.33982
 Component Sizing Information, PlantLoop, HOT WATER LOOP, Maximum Loop Flow Rate [m3/s], 7.75557E-003
 Component Sizing Information, PlantLoop, HOT WATER LOOP, Plant Loop Volume [m3], 0.93067
 Component Sizing Information, Pump:VariableSpeed, PUMP VARIABLE SPEED 1, Design Flow Rate [m3/s], 7.75557E-003
 Component Sizing Information, Pump:VariableSpeed, PUMP VARIABLE SPEED 1, Design Power Consumption [W], 1981.44941
 Component Sizing Information, Boiler:HotWater, PRIMARY BOILER, Design Size Nominal Capacity [W], 521270.22135
 Component Sizing Information, Boiler:HotWater, PRIMARY BOILER, Design Size Design Water Flow Rate [m3/s], 7.75557E-003
 Component Sizing Information, Boiler:HotWater, SECONDARY BOILER, Design Size Nominal Capacity [W], 521270.22135
 Component Sizing Information, Boiler:HotWater, SECONDARY BOILER, Design Size Design Water Flow Rate [m3/s], 7.75557E-003
 Component Sizing Information, PlantLoop, MAIN SERVICE WATER LOOP, Maximum Loop Flow Rate [m3/s], 3.68018E-002
 Component Sizing Information, PlantLoop, MAIN SERVICE WATER LOOP, Plant Loop Volume [m3], 4.41621
 Component Sizing Information, Pump:ConstantSpeed, SERVICE WATER LOOP PUMP, Design Flow Rate [m3/s], 3.68018E-002
 Component Sizing Information, Pump:ConstantSpeed, SERVICE WATER LOOP PUMP, Design Power Consumption [W], 29289.62851
 Component Sizing Information, WaterHeater:Mixed, 379GAL NATURALGAS WATER HEATER - 597KBTU/HR, Use Side Design Flow Rate [m3/s], 3.68018E-002
! <Environment>,Environment Name,Environment Type, Start Date, End Date, Start DayOfWeek, Duration {#days}, Source:Start DayOfWeek,  Use Daylight Saving, Use Holidays, Apply Weekend Holiday Rule,  Use Rain Values, Use Snow Values
! <Environment:Special Days>, Special Day Name, Special Day Type, Source, Start Date, Duration {#days}
! <Environment:Daylight Saving>, Daylight Saving Indicator, Source, Start Date, End Date
! <Environment:WarmupDays>, NumberofWarmupDays
Environment,VANCOUVER INTL AP ANN CLG .4% CONDNS DB=>MWB,SizingPeriod:DesignDay,07/21,07/21,SummerDesignDay,1,N/A,N/A,N/A,N/A,N/A,N/A
Environment:Daylight Saving,No,SizingPeriod:DesignDay
! <Environment:Design Day Data>, Max Dry-Bulb Temp {C}, Temp Range {dC}, Temp Range Ind Type, Hum Ind Value at Max Temp, Hum Ind Type,Pressure {Pa}, Wind Direction {deg CW from N}, Wind Speed {m/s}, Clearness, Rain, Snow
! <Environment:Design Day Misc>,DayOfYear,ASHRAE A Coeff,ASHRAE B Coeff,ASHRAE C Coeff,Solar Constant-Annual Variation,Eq of Time {minutes}, Solar Declination Angle {deg}, Solar Model
Environment:Design Day Data,25.10,7.60,DefaultMultipliers,101273,300,3.7,0.00,No,No
Environment:Design Day Misc,202,1084.4,0.2082,0.1365,1.0,-6.23,20.6,ASHRAETau
Environment:WarmupDays,  6
! <Tabular Report>,Style,Unit Conversion
Tabular Report,HTML,None
! <Warmup Convergence Information>,Zone Name,Environment Type/Name,Average Warmup Temperature Difference {deltaC},Std Dev Warmup Temperature Difference {deltaC},Max Temperature Pass/Fail Convergence,Min Temperature Pass/Fail Convergence,Average Warmup Load Difference {W},Std Dev Warmup Load Difference {W},Heating Load Pass/Fail Convergence,Cooling Load Pass/Fail Convergence
 Warmup Convergence Information,SP-BANQUET_FLR_6 SYS-3 FLR-4 SCH-B HPLCMT-NORTH ZN,SizingPeriod: VANCOUVER INTL AP ANN CLG .4% CONDNS DB=>MWB,7.1679321359E-002,0.1224173822,Pass,Pass,5.2272775450E-002,9.8687419728E-002,Pass,Pass
 Warmup Convergence Information,SP-BASEMENT SYS-4 FLR-1 SCH-E HPLCMT-NORTH ZN,SizingPeriod: VANCOUVER INTL AP ANN CLG .4% CONDNS DB=>MWB,1.6173638079E-002,3.0901959263E-002,Pass,Pass,4.8429086209E-002,0.2712805662,Pass,Pass
 Warmup Convergence Information,SP-CAFE_FLR_1 SYS-6 FLR-2 SCH-C HPLCMT-SOUTH ZN,SizingPeriod: VANCOUVER INTL AP ANN CLG .4% CONDNS DB=>MWB,6.4051295609E-002,0.1153265470,Pass,Pass,2.4873882592E-002,3.0042192635E-002,Pass,Pass
 Warmup Convergence Information,SP-CORRIDOR_FLR_3 SYS-1 FLR-3 SCH-E HPLCMT-SOUTH ZN,SizingPeriod: VANCOUVER INTL AP ANN CLG .4% CONDNS DB=>MWB,2.5864418030E-002,7.2555454584E-002,Pass,Pass,6.4632094132E-002,0.4341202127,Pass,Pass
 Warmup Convergence Information,SP-CORRIDOR_FLR_6 SYS-3 FLR-4 SCH-E HPLCMT-SOUTH ZN,SizingPeriod: VANCOUVER INTL AP ANN CLG .4% CONDNS DB=>MWB,5.9735126545E-002,8.4163283253E-002,Pass,Pass,9.4261862852E-002,0.4161537198,Pass,Pass
 Warmup Convergence Information,SP-DINING_FLR_6 SYS-3 FLR-4 SCH-B HPLCMT-NORTH ZN,SizingPeriod: VANCOUVER INTL AP ANN CLG .4% CONDNS DB=>MWB,7.1295796681E-002,0.1201930909,Pass,Pass,4.7753571608E-002,9.4197015884E-002,Pass,Pass
 Warmup Convergence Information,SP-KITCHEN_FLR_6 SYS-3 FLR-4 SCH-B HPLCMT-EAST ZN,SizingPeriod: VANCOUVER INTL AP ANN CLG .4% CONDNS DB=>MWB,0.1258305625,0.4603267689,Pass,Pass,6.7879552444E-002,0.1244970665,Pass,Pass
 Warmup Convergence Information,SP-LAUNDRY_FLR_1 SYS-6 FLR-2 SCH-C HPLCMT-EAST ZN,SizingPeriod: VANCOUVER INTL AP ANN CLG .4% CONDNS DB=>MWB,2.1744685163E-002,4.7740465218E-002,Pass,Pass,1.7724899226E-002,6.4459663682E-002,Pass,Pass
 Warmup Convergence Information,SP-LOBBY_FLR_1 SYS-6 FLR-2 SCH-H HPLCMT-NORTH ZN,SizingPeriod: VANCOUVER INTL AP ANN CLG .4% CONDNS DB=>MWB,1.1737034484E-004,2.5283277126E-004,Pass,Pass,9.3406791826E-003,6.9021004798E-003,Pass,Pass
 Warmup Convergence Information,SP-MECH_FLR_1 SYS-6 FLR-2 SCH-E HPLCMT-NORTH ZN,SizingPeriod: VANCOUVER INTL AP ANN CLG .4% CONDNS DB=>MWB,6.7324632944E-003,1.4086172307E-002,Pass,Pass,1.5629632989E-002,7.1495384262E-002,Pass,Pass
 Warmup Convergence Information,SP-RETAIL_1_FLR_1 SYS-6 FLR-2 SCH-C HPLCMT-SOUTH ZN,SizingPeriod: VANCOUVER INTL AP ANN CLG .4% CONDNS DB=>MWB,6.2411096847E-002,0.1144225894,Pass,Pass,2.2898084362E-002,2.5274599354E-002,Pass,Pass
 Warmup Convergence Information,SP-RETAIL_2_FLR_1 SYS-6 FLR-2 SCH-C HPLCMT-WEST ZN,SizingPeriod: VANCOUVER INTL AP ANN CLG .4% CONDNS DB=>MWB,2.1442809206E-002,4.3122542123E-002,Pass,Pass,1.6713916046E-002,4.1273603008E-002,Pass,Pass
 Warmup Convergence Information,SP-ROOM_1_FLR_3 SYS-1 FLR-3 SCH-F HPLCMT-WEST ZN,SizingPeriod: VANCOUVER INTL AP ANN CLG .4% CONDNS DB=>MWB,1.6474388662E-002,2.3511024274E-002,Pass,Pass,6.0305755336E-002,8.3636401886E-002,Pass,Pass
 Warmup Convergence Information,SP-ROOM_1_FLR_6 SYS-1 FLR-4 SCH-F HPLCMT-WEST ZN,SizingPeriod: VANCOUVER INTL AP ANN CLG .4% CONDNS DB=>MWB,3.6618167442E-002,4.8194382068E-002,Pass,Pass,6.2963238265E-002,6.5228385608E-002,Pass,Pass
 Warmup Convergence Information,SP-ROOM_2_FLR_3 SYS-1 FLR-3 SCH-F HPLCMT-WEST ZN,SizingPeriod: VANCOUVER INTL AP ANN CLG .4% CONDNS DB=>MWB,1.6563030083E-002,2.4287148698E-002,Pass,Pass,6.0191033478E-002,7.4802363164E-002,Pass,Pass
 Warmup Convergence Information,SP-ROOM_2_FLR_6 SYS-1 FLR-4 SCH-F HPLCMT-WEST ZN,SizingPeriod: VANCOUVER INTL AP ANN CLG .4% CONDNS DB=>MWB,3.6830642662E-002,4.4504463029E-002,Pass,Pass,6.3242846219E-002,6.5384150594E-002,Pass,Pass
 Warmup Convergence Information,SP-ROOM_3_MULT19_FLR_3 SYS-1 FLR-3 SCH-F HPLCMT-SOUTH ZN,SizingPeriod: VANCOUVER INTL AP ANN CLG .4% CONDNS DB=>MWB,7.1534524530E-002,0.1142423378,Pass,Pass,0.1216666426,0.2657012170,Pass,Pass
 Warmup Convergence Information,SP-ROOM_3_MULT9_FLR_6 SYS-1 FLR-4 SCH-F HPLCMT-SOUTH ZN,SizingPeriod: VANCOUVER INTL AP ANN CLG .4% CONDNS DB=>MWB,3.1723201596E-002,3.9425696680E-002,Pass,Pass,5.4971561574E-002,7.0628250855E-002,Pass,Pass
 Warmup Convergence Information,SP-ROOM_4_MULT19_FLR_3 SYS-1 FLR-3 SCH-F HPLCMT-NORTH ZN,SizingPeriod: VANCOUVER INTL AP ANN CLG .4% CONDNS DB=>MWB,7.5109507620E-002,0.1081201350,Pass,Pass,0.1187074756,0.2714437212,Pass,Pass
 Warmup Convergence Information,SP-ROOM_5_FLR_3 SYS-1 FLR-3 SCH-F HPLCMT-EAST ZN,SizingPeriod: VANCOUVER INTL AP ANN CLG .4% CONDNS DB=>MWB,1.6472303682E-002,3.3843998142E-002,Pass,Pass,4.9375804328E-002,5.5096145177E-002,Pass,Pass
 Warmup Convergence Information,SP-ROOM_6_FLR_3 SYS-1 FLR-3 SCH-F HPLCMT-EAST ZN,SizingPeriod: VANCOUVER INTL AP ANN CLG .4% CONDNS DB=>MWB,1.7137722659E-002,3.7531253287E-002,Pass,Pass,4.8623901332E-002,5.9470641023E-002,Pass,Pass
 Warmup Convergence Information,SP-STORAGE_FLR_1 SYS-4 FLR-2 SCH-E HPLCMT-NORTH ZN,SizingPeriod: VANCOUVER INTL AP ANN CLG .4% CONDNS DB=>MWB,1.2391997018E-002,3.8592068822E-002,Pass,Pass,6.0336353424E-002,0.4213051089,Pass,Pass
Environment,VANCOUVER INTL AP ANN HTG 99.6% CONDNS DB,SizingPeriod:DesignDay,12/21,12/21,WinterDesignDay,1,N/A,N/A,N/A,N/A,N/A,N/A
Environment:Daylight Saving,No,SizingPeriod:DesignDay
Environment:Design Day Data,-6.10,0.00,DefaultMultipliers,101273,100,3.0,0.00,No,No
Environment:Design Day Misc,355,1232.8,0.1424,5.7719E-002,1.0,2.45,-23.5,ASHRAEClearSky
Environment:WarmupDays,  6
 Warmup Convergence Information,SP-BANQUET_FLR_6 SYS-3 FLR-4 SCH-B HPLCMT-NORTH ZN,SizingPeriod: VANCOUVER INTL AP ANN HTG 99.6% CONDNS DB,5.5606493430E-002,0.3337700759,Pass,Pass,0.1206306896,0.8038981324,Pass,Pass
 Warmup Convergence Information,SP-BASEMENT SYS-4 FLR-1 SCH-E HPLCMT-NORTH ZN,SizingPeriod: VANCOUVER INTL AP ANN HTG 99.6% CONDNS DB,5.0066645867E-002,0.1858486550,Pass,Pass,0.7801603659,4.7131832852,Pass,Pass
 Warmup Convergence Information,SP-CAFE_FLR_1 SYS-6 FLR-2 SCH-C HPLCMT-SOUTH ZN,SizingPeriod: VANCOUVER INTL AP ANN HTG 99.6% CONDNS DB,5.5990783002E-002,0.2492662174,Pass,Pass,8.5273839869E-002,0.3311320969,Pass,Pass
 Warmup Convergence Information,SP-CORRIDOR_FLR_3 SYS-1 FLR-3 SCH-E HPLCMT-SOUTH ZN,SizingPeriod: VANCOUVER INTL AP ANN HTG 99.6% CONDNS DB,5.6969022635E-002,9.4872637692E-002,Pass,Pass,0.4435333193,3.3315620143,Pass,Pass
 Warmup Convergence Information,SP-CORRIDOR_FLR_6 SYS-3 FLR-4 SCH-E HPLCMT-SOUTH ZN,SizingPeriod: VANCOUVER INTL AP ANN HTG 99.6% CONDNS DB,5.5556291133E-002,0.2772822153,Pass,Pass,0.1078661617,0.5150238754,Pass,Pass
 Warmup Convergence Information,SP-DINING_FLR_6 SYS-3 FLR-4 SCH-B HPLCMT-NORTH ZN,SizingPeriod: VANCOUVER INTL AP ANN HTG 99.6% CONDNS DB,5.5605270282E-002,0.3331943650,Pass,Pass,9.8401110440E-002,0.5556959269,Pass,Pass
 Warmup Convergence Information,SP-KITCHEN_FLR_6 SYS-3 FLR-4 SCH-B HPLCMT-EAST ZN,SizingPeriod: VANCOUVER INTL AP ANN HTG 99.6% CONDNS DB,5.5565627683E-002,0.3428741923,Pass,Pass,6.4621883232E-002,0.3109933265,Pass,Pass
 Warmup Convergence Information,SP-LAUNDRY_FLR_1 SYS-6 FLR-2 SCH-C HPLCMT-EAST ZN,SizingPeriod: VANCOUVER INTL AP ANN HTG 99.6% CONDNS DB,6.8758322771E-002,0.1667097397,Pass,Pass,0.3965431870,1.4346045277,Pass,Pass
 Warmup Convergence Information,SP-LOBBY_FLR_1 SYS-6 FLR-2 SCH-H HPLCMT-NORTH ZN,SizingPeriod: VANCOUVER INTL AP ANN HTG 99.6% CONDNS DB,2.6637180681E-002,4.7941675005E-002,Pass,Pass,1.3529957914E-002,5.4234074687E-002,Pass,Pass
 Warmup Convergence Information,SP-MECH_FLR_1 SYS-6 FLR-2 SCH-E HPLCMT-NORTH ZN,SizingPeriod: VANCOUVER INTL AP ANN HTG 99.6% CONDNS DB,3.0788800177E-002,3.8692719069E-002,Pass,Pass,4.1124639221E-002,0.1598517490,Pass,Pass
 Warmup Convergence Information,SP-RETAIL_1_FLR_1 SYS-6 FLR-2 SCH-C HPLCMT-SOUTH ZN,SizingPeriod: VANCOUVER INTL AP ANN HTG 99.6% CONDNS DB,5.5999252767E-002,0.2541524537,Pass,Pass,28.2607349521,337.2105127996,Pass,Pass
 Warmup Convergence Information,SP-RETAIL_2_FLR_1 SYS-6 FLR-2 SCH-C HPLCMT-WEST ZN,SizingPeriod: VANCOUVER INTL AP ANN HTG 99.6% CONDNS DB,9.0284320807E-002,0.1323361197,Pass,Pass,9.5617053695E-002,0.2517318629,Pass,Pass
 Warmup Convergence Information,SP-ROOM_1_FLR_3 SYS-1 FLR-3 SCH-F HPLCMT-WEST ZN,SizingPeriod: VANCOUVER INTL AP ANN HTG 99.6% CONDNS DB,5.8216508659E-002,0.2222510934,Pass,Pass,0.2404452245,2.3010743774,Pass,Pass
 Warmup Convergence Information,SP-ROOM_1_FLR_6 SYS-1 FLR-4 SCH-F HPLCMT-WEST ZN,SizingPeriod: VANCOUVER INTL AP ANN HTG 99.6% CONDNS DB,5.8549620849E-002,0.2667932331,Pass,Pass,4.9265788164E-002,0.2881952539,Pass,Pass
 Warmup Convergence Information,SP-ROOM_2_FLR_3 SYS-1 FLR-3 SCH-F HPLCMT-WEST ZN,SizingPeriod: VANCOUVER INTL AP ANN HTG 99.6% CONDNS DB,5.8225925316E-002,0.2222383836,Pass,Pass,0.2403755070,2.3008427515,Pass,Pass
 Warmup Convergence Information,SP-ROOM_2_FLR_6 SYS-1 FLR-4 SCH-F HPLCMT-WEST ZN,SizingPeriod: VANCOUVER INTL AP ANN HTG 99.6% CONDNS DB,5.8726947908E-002,0.2675949680,Pass,Pass,4.9747054541E-002,0.2850382761,Pass,Pass
 Warmup Convergence Information,SP-ROOM_3_MULT19_FLR_3 SYS-1 FLR-3 SCH-F HPLCMT-SOUTH ZN,SizingPeriod: VANCOUVER INTL AP ANN HTG 99.6% CONDNS DB,0.1147202166,0.2400064541,Pass,Pass,0.4390640776,3.8357856149,Pass,Pass
 Warmup Convergence Information,SP-ROOM_3_MULT9_FLR_6 SYS-1 FLR-4 SCH-F HPLCMT-SOUTH ZN,SizingPeriod: VANCOUVER INTL AP ANN HTG 99.6% CONDNS DB,5.8524862682E-002,0.2495402033,Pass,Pass,0.1957926843,1.9975590407,Pass,Pass
 Warmup Convergence Information,SP-ROOM_4_MULT19_FLR_3 SYS-1 FLR-3 SCH-F HPLCMT-NORTH ZN,SizingPeriod: VANCOUVER INTL AP ANN HTG 99.6% CONDNS DB,0.1147415429,0.2400222755,Pass,Pass,0.4385766800,3.8341883241,Pass,Pass
 Warmup Convergence Information,SP-ROOM_5_FLR_3 SYS-1 FLR-3 SCH-F HPLCMT-EAST ZN,SizingPeriod: VANCOUVER INTL AP ANN HTG 99.6% CONDNS DB,5.8208397986E-002,0.2232822395,Pass,Pass,0.2390282801,2.2709395441,Pass,Pass
 Warmup Convergence Information,SP-ROOM_6_FLR_3 SYS-1 FLR-3 SCH-F HPLCMT-EAST ZN,SizingPeriod: VANCOUVER INTL AP ANN HTG 99.6% CONDNS DB,5.8216077204E-002,0.2232399649,Pass,Pass,0.2350726748,2.2642769775,Pass,Pass
 Warmup Convergence Information,SP-STORAGE_FLR_1 SYS-4 FLR-2 SCH-E HPLCMT-NORTH ZN,SizingPeriod: VANCOUVER INTL AP ANN HTG 99.6% CONDNS DB,5.5565026549E-002,0.1889426981,Pass,Pass,6.5368536667E-002,0.1667227743,Pass,Pass
! <Program Control Information:Threads/Parallel Sims>, Threading Supported,Maximum Number of Threads, Env Set Threads (OMP_NUM_THREADS), EP Env Set Threads (EP_OMP_NUM_THREADS), IDF Set Threads, Number of Threads Used (Interior Radiant Exchange), Number Nominal Surfaces, Number Parallel Sims
Program Control:Threads/Parallel Sims, No,1, N/A, N/A, N/A, N/A, N/A, N/A
End of Data
