Program Version,EnergyPlus, Version 8.9.0-eba93e8e1b, YMD=2018.09.14 14:10
! This file shows details about the branches, nodes, and other
! elements of the flow connections.
! This file is intended for use in "debugging" potential problems
! that may also be detected by the program, but may be more easily
! identified by "eye".
! This file is also intended to support software which draws a
! schematic diagram of the HVAC system.
! ===============================================================
! #Nodes,<Number of Unique Nodes>
 #Nodes,341
! <Node>,<NodeNumber>,<Node Name>,<Node Fluid Type>,<# Times Node Referenced After Definition>
 Node,1,NODE 68,Air,4
 Node,2,NODE 94,Air,4
 Node,3,NODE 150,Air,4
 Node,4,NODE 206,Air,4
 Node,5,NODE 85,Air,4
 Node,6,NODE 113,Air,4
 Node,7,NODE 169,Air,4
 Node,8,NODE 225,Air,4
 Node,9,NODE 120,Air,4
 Node,10,NODE 127,Air,4
 Node,11,NODE 134,Air,4
 Node,12,NODE 141,Air,4
 Node,13,NODE 176,Air,4
 Node,14,NODE 183,Air,4
 Node,15,NODE 190,Air,4
 Node,16,NODE 197,Air,4
 Node,17,NODE 232,Air,4
 Node,18,NODE 239,Air,4
 Node,19,NODE 246,Air,4
 Node,20,NODE 253,Air,4
 Node,21,NODE 65,Air,12
 Node,22,NODE 66,Air,3
 Node,23,NODE 91,Air,12
 Node,24,NODE 92,Air,3
 Node,25,NODE 147,Air,12
 Node,26,NODE 148,Air,3
 Node,27,NODE 203,Air,12
 Node,28,NODE 204,Air,3
 Node,29,NODE 64,Air,2
 Node,30,NODE 76,Air,5
 Node,31,NODE 75,Air,5
 Node,32,NODE 74,Air,5
 Node,33,NODE 73,Air,9
 Node,34,NODE 90,Air,2
 Node,35,NODE 104,Air,5
 Node,36,NODE 103,Air,5
 Node,37,NODE 102,Air,5
 Node,38,NODE 101,Air,9
 Node,39,NODE 146,Air,2
 Node,40,NODE 160,Air,5
 Node,41,NODE 159,Air,5
 Node,42,NODE 158,Air,5
 Node,43,NODE 157,Air,9
 Node,44,NODE 202,Air,2
 Node,45,NODE 216,Air,5
 Node,46,NODE 215,Air,5
 Node,47,NODE 214,Air,5
 Node,48,NODE 213,Air,9
 Node,49,NODE 37,Water,2
 Node,50,NODE 43,Water,1
 Node,51,NODE 39,Water,1
 Node,52,NODE 44,Water,1
 Node,53,NODE 45,Water,1
 Node,54,NODE 46,Water,1
 Node,55,NODE 47,Water,1
 Node,56,NODE 48,Water,1
 Node,57,NODE 49,Water,1
 Node,58,NODE 38,Water,4
 Node,59,NODE 40,Water,2
 Node,60,CHILLED WATER LOOP DEMAND INLET PIPE NODE,Water,1
 Node,61,NODE 42,Water,2
 Node,62,NODE 70,Water,1
 Node,63,NODE 97,Water,2
 Node,64,NODE 98,Water,1
 Node,65,NODE 153,Water,2
 Node,66,NODE 154,Water,1
 Node,67,NODE 209,Water,2
 Node,68,NODE 210,Water,1
 Node,69,CHILLED WATER LOOP DEMAND BYPASS PIPE INLET NODE,Water,1
 Node,70,CHILLED WATER LOOP DEMAND BYPASS PIPE OUTLET NODE,Water,1
 Node,71,CHILLED WATER LOOP DEMAND OUTLET PIPE NODE,Water,1
 Node,72,NODE 41,Water,2
 Node,73,NODE 50,Water,2
 Node,74,NODE 56,Water,1
 Node,75,NODE 52,Water,1
 Node,76,NODE 57,Water,1
 Node,77,NODE 58,Water,1
 Node,78,NODE 59,Water,1
 Node,79,NODE 60,Water,1
 Node,80,NODE 51,Water,4
 Node,81,NODE 53,Water,2
 Node,82,CONDENSER WATER LOOP DEMAND INLET PIPE NODE,Water,1
 Node,83,NODE 55,Water,1
 Node,84,NODE 61,Water,1
 Node,85,NODE 62,Water,1
 Node,86,NODE 63,Water,1
 Node,87,CONDENSER WATER LOOP DEMAND BYPASS PIPE INLET NODE,Water,1
 Node,88,CONDENSER WATER LOOP DEMAND BYPASS PIPE OUTLET NODE,Water,1
 Node,89,CONDENSER WATER LOOP DEMAND OUTLET PIPE NODE,Water,1
 Node,90,NODE 54,Water,2
 Node,91,NODE 24,Water,2
 Node,92,NODE 30,Water,1
 Node,93,NODE 26,Water,1
 Node,94,NODE 31,Water,1
 Node,95,NODE 32,Water,1
 Node,96,NODE 33,Water,1
 Node,97,NODE 34,Water,1
 Node,98,NODE 35,Water,1
 Node,99,NODE 36,Water,1
 Node,100,NODE 25,Water,4
 Node,101,NODE 27,Water,2
 Node,102,HOT WATER LOOP DEMAND INLET PIPE NODE,Water,1
 Node,103,NODE 29,Water,2
 Node,104,NODE 69,Water,1
 Node,105,NODE 77,Water,1
 Node,106,NODE 78,Water,1
 Node,107,NODE 81,Water,1
 Node,108,NODE 82,Water,1
 Node,109,NODE 83,Water,1
 Node,110,NODE 84,Water,1
 Node,111,NODE 88,Water,1
 Node,112,NODE 89,Water,1
 Node,113,NODE 95,Water,2
 Node,114,NODE 96,Water,1
 Node,115,NODE 105,Water,1
 Node,116,NODE 106,Water,1
 Node,117,NODE 109,Water,1
 Node,118,NODE 110,Water,1
 Node,119,NODE 111,Water,1
 Node,120,NODE 112,Water,1
 Node,121,NODE 116,Water,1
 Node,122,NODE 117,Water,1
 Node,123,NODE 118,Water,1
 Node,124,NODE 119,Water,1
 Node,125,NODE 123,Water,1
 Node,126,NODE 124,Water,1
 Node,127,NODE 125,Water,1
 Node,128,NODE 126,Water,1
 Node,129,NODE 130,Water,1
 Node,130,NODE 131,Water,1
 Node,131,NODE 132,Water,1
 Node,132,NODE 133,Water,1
 Node,133,NODE 137,Water,1
 Node,134,NODE 138,Water,1
 Node,135,NODE 139,Water,1
 Node,136,NODE 140,Water,1
 Node,137,NODE 144,Water,1
 Node,138,NODE 145,Water,1
 Node,139,NODE 151,Water,2
 Node,140,NODE 152,Water,1
 Node,141,NODE 161,Water,1
 Node,142,NODE 162,Water,1
 Node,143,NODE 165,Water,1
 Node,144,NODE 166,Water,1
 Node,145,NODE 167,Water,1
 Node,146,NODE 168,Water,1
 Node,147,NODE 172,Water,1
 Node,148,NODE 173,Water,1
 Node,149,NODE 174,Water,1
 Node,150,NODE 175,Water,1
 Node,151,NODE 179,Water,1
 Node,152,NODE 180,Water,1
 Node,153,NODE 181,Water,1
 Node,154,NODE 182,Water,1
 Node,155,NODE 186,Water,1
 Node,156,NODE 187,Water,1
 Node,157,NODE 188,Water,1
 Node,158,NODE 189,Water,1
 Node,159,NODE 193,Water,1
 Node,160,NODE 194,Water,1
 Node,161,NODE 195,Water,1
 Node,162,NODE 196,Water,1
 Node,163,NODE 200,Water,1
 Node,164,NODE 201,Water,1
 Node,165,NODE 207,Water,2
 Node,166,NODE 208,Water,1
 Node,167,NODE 217,Water,1
 Node,168,NODE 218,Water,1
 Node,169,NODE 221,Water,1
 Node,170,NODE 222,Water,1
 Node,171,NODE 223,Water,1
 Node,172,NODE 224,Water,1
 Node,173,NODE 228,Water,1
 Node,174,NODE 229,Water,1
 Node,175,NODE 230,Water,1
 Node,176,NODE 231,Water,1
 Node,177,NODE 235,Water,1
 Node,178,NODE 236,Water,1
 Node,179,NODE 237,Water,1
 Node,180,NODE 238,Water,1
 Node,181,NODE 242,Water,1
 Node,182,NODE 243,Water,1
 Node,183,NODE 244,Water,1
 Node,184,NODE 245,Water,1
 Node,185,NODE 249,Water,1
 Node,186,NODE 250,Water,1
 Node,187,NODE 251,Water,1
 Node,188,NODE 252,Water,1
 Node,189,NODE 256,Water,1
 Node,190,NODE 257,Water,1
 Node,191,HOT WATER LOOP DEMAND BYPASS PIPE INLET NODE,Water,1
 Node,192,HOT WATER LOOP DEMAND BYPASS PIPE OUTLET NODE,Water,1
 Node,193,HOT WATER LOOP DEMAND OUTLET PIPE NODE,Water,1
 Node,194,NODE 28,Water,2
 Node,195,NODE 258,Water,2
 Node,196,NODE 264,Water,1
 Node,197,NODE 260,Water,1
 Node,198,NODE 265,Water,1
 Node,199,NODE 266,Water,1
 Node,200,NODE 267,Water,1
 Node,201,NODE 269,Water,1
 Node,202,NODE 259,Water,4
 Node,203,NODE 261,Water,2
 Node,204,NODE 270,Water,1
 Node,205,NODE 263,Water,1
 Node,206,NODE 268,Water,1
 Node,207,NODE 272,Water,1
 Node,208,NODE 273,Water,1
 Node,209,NODE 274,Water,1
 Node,210,NODE 275,Water,1
 Node,211,NODE 276,Water,1
 Node,212,NODE 277,Water,1
 Node,213,NODE 278,Water,1
 Node,214,NODE 279,Water,1
 Node,215,NODE 280,Water,1
 Node,216,NODE 281,Water,1
 Node,217,NODE 282,Water,1
 Node,218,NODE 283,Water,1
 Node,219,NODE 284,Water,1
 Node,220,NODE 285,Water,1
 Node,221,NODE 286,Water,1
 Node,222,NODE 287,Water,1
 Node,223,NODE 288,Water,1
 Node,224,NODE 289,Water,1
 Node,225,NODE 290,Water,1
 Node,226,NODE 291,Water,1
 Node,227,NODE 292,Water,1
 Node,228,NODE 293,Water,1
 Node,229,NODE 294,Water,1
 Node,230,NODE 295,Water,1
 Node,231,NODE 296,Water,1
 Node,232,NODE 297,Water,1
 Node,233,NODE 298,Water,1
 Node,234,NODE 299,Water,1
 Node,235,NODE 300,Water,1
 Node,236,NODE 301,Water,1
 Node,237,NODE 302,Water,1
 Node,238,NODE 303,Water,1
 Node,239,NODE 304,Water,1
 Node,240,NODE 305,Water,1
 Node,241,NODE 306,Water,1
 Node,242,NODE 307,Water,1
 Node,243,NODE 308,Water,1
 Node,244,NODE 309,Water,1
 Node,245,MAIN SERVICE WATER LOOP DEMAND BYPASS PIPE INLET NODE,Water,1
 Node,246,MAIN SERVICE WATER LOOP DEMAND BYPASS PIPE OUTLET NODE,Water,1
 Node,247,NODE 271,Water,1
 Node,248,NODE 262,Water,2
 Node,249,NODE 4,Air,0
 Node,250,NODE 79,Air,1
 Node,251,NODE 10,Air,0
 Node,252,NODE 107,Air,1
 Node,253,NODE 16,Air,0
 Node,254,NODE 163,Air,1
 Node,255,NODE 22,Air,0
 Node,256,NODE 219,Air,1
 Node,257,NODE 5,Air,0
 Node,258,NODE 86,Air,1
 Node,259,NODE 11,Air,0
 Node,260,NODE 114,Air,1
 Node,261,NODE 17,Air,0
 Node,262,NODE 170,Air,1
 Node,263,NODE 23,Air,0
 Node,264,NODE 226,Air,1
 Node,265,NODE 9,Air,0
 Node,266,NODE 121,Air,1
 Node,267,NODE 7,Air,0
 Node,268,NODE 128,Air,1
 Node,269,NODE 6,Air,0
 Node,270,NODE 135,Air,1
 Node,271,NODE 8,Air,0
 Node,272,NODE 142,Air,1
 Node,273,NODE 15,Air,0
 Node,274,NODE 177,Air,1
 Node,275,NODE 13,Air,0
 Node,276,NODE 184,Air,1
 Node,277,NODE 12,Air,0
 Node,278,NODE 191,Air,1
 Node,279,NODE 14,Air,0
 Node,280,NODE 198,Air,1
 Node,281,NODE 21,Air,0
 Node,282,NODE 233,Air,1
 Node,283,NODE 19,Air,0
 Node,284,NODE 240,Air,1
 Node,285,NODE 18,Air,0
 Node,286,NODE 247,Air,1
 Node,287,NODE 20,Air,0
 Node,288,NODE 254,Air,1
 Node,289,NODE 67,Air,2
 Node,290,NODE 93,Air,2
 Node,291,NODE 149,Air,2
 Node,292,NODE 205,Air,2
 Node,293,NODE 71,Air,2
 Node,294,NODE 99,Air,2
 Node,295,NODE 155,Air,2
 Node,296,NODE 211,Air,2
 Node,297,MODEL OUTDOOR AIR NODE,Air,0
 Node,298,NODE 80,Air,1
 Node,299,NODE 87,Air,1
 Node,300,NODE 108,Air,1
 Node,301,NODE 115,Air,1
 Node,302,NODE 122,Air,1
 Node,303,NODE 129,Air,1
 Node,304,NODE 136,Air,1
 Node,305,NODE 143,Air,1
 Node,306,NODE 164,Air,1
 Node,307,NODE 171,Air,1
 Node,308,NODE 178,Air,1
 Node,309,NODE 185,Air,1
 Node,310,NODE 192,Air,1
 Node,311,NODE 199,Air,1
 Node,312,NODE 220,Air,1
 Node,313,NODE 227,Air,1
 Node,314,NODE 234,Air,1
 Node,315,NODE 241,Air,1
 Node,316,NODE 248,Air,1
 Node,317,NODE 255,Air,1
 Node,318,AIR TERMINAL SINGLE DUCT VAV REHEAT 1 DAMPER OUTLET,Air,1
 Node,319,AIR TERMINAL SINGLE DUCT VAV REHEAT 3 DAMPER OUTLET,Air,1
 Node,320,AIR TERMINAL SINGLE DUCT VAV REHEAT 9 DAMPER OUTLET,Air,1
 Node,321,AIR TERMINAL SINGLE DUCT VAV REHEAT 15 DAMPER OUTLET,Air,1
 Node,322,AIR TERMINAL SINGLE DUCT VAV REHEAT 2 DAMPER OUTLET,Air,1
 Node,323,AIR TERMINAL SINGLE DUCT VAV REHEAT 4 DAMPER OUTLET,Air,1
 Node,324,AIR TERMINAL SINGLE DUCT VAV REHEAT 10 DAMPER OUTLET,Air,1
 Node,325,AIR TERMINAL SINGLE DUCT VAV REHEAT 16 DAMPER OUTLET,Air,1
 Node,326,AIR TERMINAL SINGLE DUCT VAV REHEAT 5 DAMPER OUTLET,Air,1
 Node,327,AIR TERMINAL SINGLE DUCT VAV REHEAT 6 DAMPER OUTLET,Air,1
 Node,328,AIR TERMINAL SINGLE DUCT VAV REHEAT 7 DAMPER OUTLET,Air,1
 Node,329,AIR TERMINAL SINGLE DUCT VAV REHEAT 8 DAMPER OUTLET,Air,1
 Node,330,AIR TERMINAL SINGLE DUCT VAV REHEAT 11 DAMPER OUTLET,Air,1
 Node,331,AIR TERMINAL SINGLE DUCT VAV REHEAT 12 DAMPER OUTLET,Air,1
 Node,332,AIR TERMINAL SINGLE DUCT VAV REHEAT 13 DAMPER OUTLET,Air,1
 Node,333,AIR TERMINAL SINGLE DUCT VAV REHEAT 14 DAMPER OUTLET,Air,1
 Node,334,AIR TERMINAL SINGLE DUCT VAV REHEAT 17 DAMPER OUTLET,Air,1
 Node,335,AIR TERMINAL SINGLE DUCT VAV REHEAT 18 DAMPER OUTLET,Air,1
 Node,336,AIR TERMINAL SINGLE DUCT VAV REHEAT 19 DAMPER OUTLET,Air,1
 Node,337,AIR TERMINAL SINGLE DUCT VAV REHEAT 20 DAMPER OUTLET,Air,1
 Node,338,NODE 72,Air,1
 Node,339,NODE 100,Air,1
 Node,340,NODE 156,Air,1
 Node,341,NODE 212,Air,1
! ===============================================================
! Suspicious nodes have 0 references.  It is normal for some nodes, however.
! Listing nodes with 0 references (culled from previous list):
! <Suspicious Node>,<NodeNumber>,<Node Name>,<Node Fluid Type>,<# Times Node Referenced After Definition>
 Suspicious Node,249,NODE 4,Air,0
 Suspicious Node,251,NODE 10,Air,0
 Suspicious Node,253,NODE 16,Air,0
 Suspicious Node,255,NODE 22,Air,0
 Suspicious Node,257,NODE 5,Air,0
 Suspicious Node,259,NODE 11,Air,0
 Suspicious Node,261,NODE 17,Air,0
 Suspicious Node,263,NODE 23,Air,0
 Suspicious Node,265,NODE 9,Air,0
 Suspicious Node,267,NODE 7,Air,0
 Suspicious Node,269,NODE 6,Air,0
 Suspicious Node,271,NODE 8,Air,0
 Suspicious Node,273,NODE 15,Air,0
 Suspicious Node,275,NODE 13,Air,0
 Suspicious Node,277,NODE 12,Air,0
 Suspicious Node,279,NODE 14,Air,0
 Suspicious Node,281,NODE 21,Air,0
 Suspicious Node,283,NODE 19,Air,0
 Suspicious Node,285,NODE 18,Air,0
 Suspicious Node,287,NODE 20,Air,0
 Suspicious Node,297,MODEL OUTDOOR AIR NODE,Air,0
! ===============================================================
! <#Branch Lists>,<Number of Branch Lists>
 #Branch Lists,12
! <Branch List>,<Branch List Count>,<Branch List Name>,<Loop Name>,<Loop Type>,<Number of Branches>
! <Branch>,<Branch Count>,<Branch Name>,<Loop Name>,<Loop Type>,<Branch Inlet Node Name>,<Branch Outlet Node Name>
 Branch List,1,VAV WITH REHEAT SUPPLY BRANCHES,VAV WITH REHEAT,Air,1
   Branch,1,VAV WITH REHEAT MAIN BRANCH,VAV WITH REHEAT,Air,NODE 64,NODE 65
 Branch List,2,VAV WITH REHEAT 1 SUPPLY BRANCHES,VAV WITH REHEAT 1,Air,1
   Branch,1,VAV WITH REHEAT 1 MAIN BRANCH,VAV WITH REHEAT 1,Air,NODE 90,NODE 91
 Branch List,3,VAV WITH REHEAT 2 SUPPLY BRANCHES,VAV WITH REHEAT 2,Air,1
   Branch,1,VAV WITH REHEAT 2 MAIN BRANCH,VAV WITH REHEAT 2,Air,NODE 146,NODE 147
 Branch List,4,VAV WITH REHEAT 3 SUPPLY BRANCHES,VAV WITH REHEAT 3,Air,1
   Branch,1,VAV WITH REHEAT 3 MAIN BRANCH,VAV WITH REHEAT 3,Air,NODE 202,NODE 203
 Branch List,5,CHILLED WATER LOOP SUPPLY BRANCHES,CHILLED WATER LOOP,Plant Supply,5
   Branch,1,CHILLED WATER LOOP SUPPLY INLET BRANCH,CHILLED WATER LOOP,Plant Supply,NODE 37,NODE 43
   Branch,2,CHILLED WATER LOOP SUPPLY BRANCH 1,CHILLED WATER LOOP,Plant Supply,NODE 39,NODE 44
   Branch,3,CHILLED WATER LOOP SUPPLY BRANCH 2,CHILLED WATER LOOP,Plant Supply,NODE 45,NODE 46
   Branch,4,CHILLED WATER LOOP SUPPLY BRANCH 3,CHILLED WATER LOOP,Plant Supply,NODE 47,NODE 48
   Branch,5,CHILLED WATER LOOP SUPPLY OUTLET BRANCH,CHILLED WATER LOOP,Plant Supply,NODE 49,NODE 38
 Branch List,6,CHILLED WATER LOOP DEMAND BRANCHES,CHILLED WATER LOOP,Plant Demand,7
   Branch,1,CHILLED WATER LOOP DEMAND INLET BRANCH,CHILLED WATER LOOP,Plant Demand,NODE 40,CHILLED WATER LOOP DEMAND INLET PIPE NODE
   Branch,2,CHILLED WATER LOOP DEMAND BRANCH 1,CHILLED WATER LOOP,Plant Demand,NODE 42,NODE 70
   Branch,3,CHILLED WATER LOOP DEMAND BRANCH 2,CHILLED WATER LOOP,Plant Demand,NODE 97,NODE 98
   Branch,4,CHILLED WATER LOOP DEMAND BRANCH 3,CHILLED WATER LOOP,Plant Demand,NODE 153,NODE 154
   Branch,5,CHILLED WATER LOOP DEMAND BRANCH 4,CHILLED WATER LOOP,Plant Demand,NODE 209,NODE 210
   Branch,6,CHILLED WATER LOOP DEMAND BYPASS BRANCH,CHILLED WATER LOOP,Plant Demand,CHILLED WATER LOOP DEMAND BYPASS PIPE INLET NODE,CHILLED WATER LOOP DEMAND BYPASS PIPE OUTLET NODE
   Branch,7,CHILLED WATER LOOP DEMAND OUTLET BRANCH,CHILLED WATER LOOP,Plant Demand,CHILLED WATER LOOP DEMAND OUTLET PIPE NODE,NODE 41
 Branch List,7,CONDENSER WATER LOOP SUPPLY BRANCHES,CONDENSER WATER LOOP,Plant Supply,4
   Branch,1,CONDENSER WATER LOOP SUPPLY INLET BRANCH,CONDENSER WATER LOOP,Plant Supply,NODE 50,NODE 56
   Branch,2,CONDENSER WATER LOOP SUPPLY BRANCH 1,CONDENSER WATER LOOP,Plant Supply,NODE 52,NODE 57
   Branch,3,CONDENSER WATER LOOP SUPPLY BRANCH 2,CONDENSER WATER LOOP,Plant Supply,NODE 58,NODE 59
   Branch,4,CONDENSER WATER LOOP SUPPLY OUTLET BRANCH,CONDENSER WATER LOOP,Plant Supply,NODE 60,NODE 51
 Branch List,8,CONDENSER WATER LOOP DEMAND BRANCHES,CONDENSER WATER LOOP,Plant Demand,5
   Branch,1,CONDENSER WATER LOOP DEMAND INLET BRANCH,CONDENSER WATER LOOP,Plant Demand,NODE 53,CONDENSER WATER LOOP DEMAND INLET PIPE NODE
   Branch,2,CONDENSER WATER LOOP DEMAND BRANCH 1,CONDENSER WATER LOOP,Plant Demand,NODE 55,NODE 61
   Branch,3,CONDENSER WATER LOOP DEMAND BRANCH 2,CONDENSER WATER LOOP,Plant Demand,NODE 62,NODE 63
   Branch,4,CONDENSER WATER LOOP DEMAND BYPASS BRANCH,CONDENSER WATER LOOP,Plant Demand,CONDENSER WATER LOOP DEMAND BYPASS PIPE INLET NODE,CONDENSER WATER LOOP DEMAND BYPASS PIPE OUTLET NODE
   Branch,5,CONDENSER WATER LOOP DEMAND OUTLET BRANCH,CONDENSER WATER LOOP,Plant Demand,CONDENSER WATER LOOP DEMAND OUTLET PIPE NODE,NODE 54
 Branch List,9,HOT WATER LOOP SUPPLY BRANCHES,HOT WATER LOOP,Plant Supply,5
   Branch,1,HOT WATER LOOP SUPPLY INLET BRANCH,HOT WATER LOOP,Plant Supply,NODE 24,NODE 30
   Branch,2,HOT WATER LOOP SUPPLY BRANCH 1,HOT WATER LOOP,Plant Supply,NODE 26,NODE 31
   Branch,3,HOT WATER LOOP SUPPLY BRANCH 2,HOT WATER LOOP,Plant Supply,NODE 32,NODE 33
   Branch,4,HOT WATER LOOP SUPPLY BRANCH 3,HOT WATER LOOP,Plant Supply,NODE 34,NODE 35
   Branch,5,HOT WATER LOOP SUPPLY OUTLET BRANCH,HOT WATER LOOP,Plant Supply,NODE 36,NODE 25
 Branch List,10,HOT WATER LOOP DEMAND BRANCHES,HOT WATER LOOP,Plant Demand,47
   Branch,1,HOT WATER LOOP DEMAND INLET BRANCH,HOT WATER LOOP,Plant Demand,NODE 27,HOT WATER LOOP DEMAND INLET PIPE NODE
   Branch,2,HOT WATER LOOP DEMAND BRANCH 1,HOT WATER LOOP,Plant Demand,NODE 29,NODE 69
   Branch,3,HOT WATER LOOP DEMAND BRANCH 2,HOT WATER LOOP,Plant Demand,NODE 77,NODE 78
   Branch,4,HOT WATER LOOP DEMAND BRANCH 3,HOT WATER LOOP,Plant Demand,NODE 81,NODE 82
   Branch,5,HOT WATER LOOP DEMAND BRANCH 4,HOT WATER LOOP,Plant Demand,NODE 83,NODE 84
   Branch,6,HOT WATER LOOP DEMAND BRANCH 5,HOT WATER LOOP,Plant Demand,NODE 88,NODE 89
   Branch,7,HOT WATER LOOP DEMAND BRANCH 6,HOT WATER LOOP,Plant Demand,NODE 95,NODE 96
   Branch,8,HOT WATER LOOP DEMAND BRANCH 7,HOT WATER LOOP,Plant Demand,NODE 105,NODE 106
   Branch,9,HOT WATER LOOP DEMAND BRANCH 8,HOT WATER LOOP,Plant Demand,NODE 109,NODE 110
   Branch,10,HOT WATER LOOP DEMAND BRANCH 9,HOT WATER LOOP,Plant Demand,NODE 111,NODE 112
   Branch,11,HOT WATER LOOP DEMAND BRANCH 10,HOT WATER LOOP,Plant Demand,NODE 116,NODE 117
   Branch,12,HOT WATER LOOP DEMAND BRANCH 11,HOT WATER LOOP,Plant Demand,NODE 118,NODE 119
   Branch,13,HOT WATER LOOP DEMAND BRANCH 12,HOT WATER LOOP,Plant Demand,NODE 123,NODE 124
   Branch,14,HOT WATER LOOP DEMAND BRANCH 13,HOT WATER LOOP,Plant Demand,NODE 125,NODE 126
   Branch,15,HOT WATER LOOP DEMAND BRANCH 14,HOT WATER LOOP,Plant Demand,NODE 130,NODE 131
   Branch,16,HOT WATER LOOP DEMAND BRANCH 15,HOT WATER LOOP,Plant Demand,NODE 132,NODE 133
   Branch,17,HOT WATER LOOP DEMAND BRANCH 16,HOT WATER LOOP,Plant Demand,NODE 137,NODE 138
   Branch,18,HOT WATER LOOP DEMAND BRANCH 17,HOT WATER LOOP,Plant Demand,NODE 139,NODE 140
   Branch,19,HOT WATER LOOP DEMAND BRANCH 18,HOT WATER LOOP,Plant Demand,NODE 144,NODE 145
   Branch,20,HOT WATER LOOP DEMAND BRANCH 19,HOT WATER LOOP,Plant Demand,NODE 151,NODE 152
   Branch,21,HOT WATER LOOP DEMAND BRANCH 20,HOT WATER LOOP,Plant Demand,NODE 161,NODE 162
   Branch,22,HOT WATER LOOP DEMAND BRANCH 21,HOT WATER LOOP,Plant Demand,NODE 165,NODE 166
   Branch,23,HOT WATER LOOP DEMAND BRANCH 22,HOT WATER LOOP,Plant Demand,NODE 167,NODE 168
   Branch,24,HOT WATER LOOP DEMAND BRANCH 23,HOT WATER LOOP,Plant Demand,NODE 172,NODE 173
   Branch,25,HOT WATER LOOP DEMAND BRANCH 24,HOT WATER LOOP,Plant Demand,NODE 174,NODE 175
   Branch,26,HOT WATER LOOP DEMAND BRANCH 25,HOT WATER LOOP,Plant Demand,NODE 179,NODE 180
   Branch,27,HOT WATER LOOP DEMAND BRANCH 26,HOT WATER LOOP,Plant Demand,NODE 181,NODE 182
   Branch,28,HOT WATER LOOP DEMAND BRANCH 27,HOT WATER LOOP,Plant Demand,NODE 186,NODE 187
   Branch,29,HOT WATER LOOP DEMAND BRANCH 28,HOT WATER LOOP,Plant Demand,NODE 188,NODE 189
   Branch,30,HOT WATER LOOP DEMAND BRANCH 29,HOT WATER LOOP,Plant Demand,NODE 193,NODE 194
   Branch,31,HOT WATER LOOP DEMAND BRANCH 30,HOT WATER LOOP,Plant Demand,NODE 195,NODE 196
   Branch,32,HOT WATER LOOP DEMAND BRANCH 31,HOT WATER LOOP,Plant Demand,NODE 200,NODE 201
   Branch,33,HOT WATER LOOP DEMAND BRANCH 32,HOT WATER LOOP,Plant Demand,NODE 207,NODE 208
   Branch,34,HOT WATER LOOP DEMAND BRANCH 33,HOT WATER LOOP,Plant Demand,NODE 217,NODE 218
   Branch,35,HOT WATER LOOP DEMAND BRANCH 34,HOT WATER LOOP,Plant Demand,NODE 221,NODE 222
   Branch,36,HOT WATER LOOP DEMAND BRANCH 35,HOT WATER LOOP,Plant Demand,NODE 223,NODE 224
   Branch,37,HOT WATER LOOP DEMAND BRANCH 36,HOT WATER LOOP,Plant Demand,NODE 228,NODE 229
   Branch,38,HOT WATER LOOP DEMAND BRANCH 37,HOT WATER LOOP,Plant Demand,NODE 230,NODE 231
   Branch,39,HOT WATER LOOP DEMAND BRANCH 38,HOT WATER LOOP,Plant Demand,NODE 235,NODE 236
   Branch,40,HOT WATER LOOP DEMAND BRANCH 39,HOT WATER LOOP,Plant Demand,NODE 237,NODE 238
   Branch,41,HOT WATER LOOP DEMAND BRANCH 40,HOT WATER LOOP,Plant Demand,NODE 242,NODE 243
   Branch,42,HOT WATER LOOP DEMAND BRANCH 41,HOT WATER LOOP,Plant Demand,NODE 244,NODE 245
   Branch,43,HOT WATER LOOP DEMAND BRANCH 42,HOT WATER LOOP,Plant Demand,NODE 249,NODE 250
   Branch,44,HOT WATER LOOP DEMAND BRANCH 43,HOT WATER LOOP,Plant Demand,NODE 251,NODE 252
   Branch,45,HOT WATER LOOP DEMAND BRANCH 44,HOT WATER LOOP,Plant Demand,NODE 256,NODE 257
   Branch,46,HOT WATER LOOP DEMAND BYPASS BRANCH,HOT WATER LOOP,Plant Demand,HOT WATER LOOP DEMAND BYPASS PIPE INLET NODE,HOT WATER LOOP DEMAND BYPASS PIPE OUTLET NODE
   Branch,47,HOT WATER LOOP DEMAND OUTLET BRANCH,HOT WATER LOOP,Plant Demand,HOT WATER LOOP DEMAND OUTLET PIPE NODE,NODE 28
 Branch List,11,MAIN SERVICE WATER LOOP SUPPLY BRANCHES,MAIN SERVICE WATER LOOP,Plant Supply,4
   Branch,1,MAIN SERVICE WATER LOOP SUPPLY INLET BRANCH,MAIN SERVICE WATER LOOP,Plant Supply,NODE 258,NODE 264
   Branch,2,MAIN SERVICE WATER LOOP SUPPLY BRANCH 1,MAIN SERVICE WATER LOOP,Plant Supply,NODE 260,NODE 265
   Branch,3,MAIN SERVICE WATER LOOP SUPPLY BRANCH 2,MAIN SERVICE WATER LOOP,Plant Supply,NODE 266,NODE 267
   Branch,4,MAIN SERVICE WATER LOOP SUPPLY OUTLET BRANCH,MAIN SERVICE WATER LOOP,Plant Supply,NODE 269,NODE 259
 Branch List,12,MAIN SERVICE WATER LOOP DEMAND BRANCHES,MAIN SERVICE WATER LOOP,Plant Demand,23
   Branch,1,MAIN SERVICE WATER LOOP DEMAND INLET BRANCH,MAIN SERVICE WATER LOOP,Plant Demand,NODE 261,NODE 270
   Branch,2,MAIN SERVICE WATER LOOP DEMAND BRANCH 1,MAIN SERVICE WATER LOOP,Plant Demand,NODE 263,NODE 268
   Branch,3,MAIN SERVICE WATER LOOP DEMAND BRANCH 2,MAIN SERVICE WATER LOOP,Plant Demand,NODE 272,NODE 273
   Branch,4,MAIN SERVICE WATER LOOP DEMAND BRANCH 3,MAIN SERVICE WATER LOOP,Plant Demand,NODE 274,NODE 275
   Branch,5,MAIN SERVICE WATER LOOP DEMAND BRANCH 4,MAIN SERVICE WATER LOOP,Plant Demand,NODE 276,NODE 277
   Branch,6,MAIN SERVICE WATER LOOP DEMAND BRANCH 5,MAIN SERVICE WATER LOOP,Plant Demand,NODE 278,NODE 279
   Branch,7,MAIN SERVICE WATER LOOP DEMAND BRANCH 6,MAIN SERVICE WATER LOOP,Plant Demand,NODE 280,NODE 281
   Branch,8,MAIN SERVICE WATER LOOP DEMAND BRANCH 7,MAIN SERVICE WATER LOOP,Plant Demand,NODE 282,NODE 283
   Branch,9,MAIN SERVICE WATER LOOP DEMAND BRANCH 8,MAIN SERVICE WATER LOOP,Plant Demand,NODE 284,NODE 285
   Branch,10,MAIN SERVICE WATER LOOP DEMAND BRANCH 9,MAIN SERVICE WATER LOOP,Plant Demand,NODE 286,NODE 287
   Branch,11,MAIN SERVICE WATER LOOP DEMAND BRANCH 10,MAIN SERVICE WATER LOOP,Plant Demand,NODE 288,NODE 289
   Branch,12,MAIN SERVICE WATER LOOP DEMAND BRANCH 11,MAIN SERVICE WATER LOOP,Plant Demand,NODE 290,NODE 291
   Branch,13,MAIN SERVICE WATER LOOP DEMAND BRANCH 12,MAIN SERVICE WATER LOOP,Plant Demand,NODE 292,NODE 293
   Branch,14,MAIN SERVICE WATER LOOP DEMAND BRANCH 13,MAIN SERVICE WATER LOOP,Plant Demand,NODE 294,NODE 295
   Branch,15,MAIN SERVICE WATER LOOP DEMAND BRANCH 14,MAIN SERVICE WATER LOOP,Plant Demand,NODE 296,NODE 297
   Branch,16,MAIN SERVICE WATER LOOP DEMAND BRANCH 15,MAIN SERVICE WATER LOOP,Plant Demand,NODE 298,NODE 299
   Branch,17,MAIN SERVICE WATER LOOP DEMAND BRANCH 16,MAIN SERVICE WATER LOOP,Plant Demand,NODE 300,NODE 301
   Branch,18,MAIN SERVICE WATER LOOP DEMAND BRANCH 17,MAIN SERVICE WATER LOOP,Plant Demand,NODE 302,NODE 303
   Branch,19,MAIN SERVICE WATER LOOP DEMAND BRANCH 18,MAIN SERVICE WATER LOOP,Plant Demand,NODE 304,NODE 305
   Branch,20,MAIN SERVICE WATER LOOP DEMAND BRANCH 19,MAIN SERVICE WATER LOOP,Plant Demand,NODE 306,NODE 307
   Branch,21,MAIN SERVICE WATER LOOP DEMAND BRANCH 20,MAIN SERVICE WATER LOOP,Plant Demand,NODE 308,NODE 309
   Branch,22,MAIN SERVICE WATER LOOP DEMAND BYPASS BRANCH,MAIN SERVICE WATER LOOP,Plant Demand,MAIN SERVICE WATER LOOP DEMAND BYPASS PIPE INLET NODE,MAIN SERVICE WATER LOOP DEMAND BYPASS PIPE OUTLET NODE
   Branch,23,MAIN SERVICE WATER LOOP DEMAND OUTLET BRANCH,MAIN SERVICE WATER LOOP,Plant Demand,NODE 271,NODE 262
! ===============================================================
! <#Supply Air Paths>,<Number of Supply Air Paths>
 #Supply Air Paths,4
! <Supply Air Path>,<Supply Air Path Count>,<Supply Air Path Name>,<AirLoopHVAC Name>
! <#Components on Supply Air Path>,<Number of Components>
! <Supply Air Path Component>,<Component Count>,<Component Type>,<Component Name>,<AirLoopHVAC Name>
! <#Outlet Nodes on Supply Air Path Component>,<Number of Nodes>
! <Supply Air Path Component Nodes>,<Node Count>,<Component Type>,<Component Name>,<Inlet Node Name>,<Outlet Node Name>,<AirLoopHVAC Name>
 Supply Air Path,1,VAV WITH REHEAT NODE 66 SUPPLY PATH,VAV WITH REHEAT
   #Components on Supply Air Path,1
   Supply Air Path Component,1,AIRLOOPHVAC:ZONESPLITTER,AIR LOOP HVAC ZONE SPLITTER 1,VAV WITH REHEAT
     #Outlet Nodes on Supply Air Path Component,2
     Supply Air Path Component Nodes,1,AIRLOOPHVAC:ZONESPLITTER,AIR LOOP HVAC ZONE SPLITTER 1,NODE 66,NODE 80,VAV WITH REHEAT
     Supply Air Path Component Nodes,2,AIRLOOPHVAC:ZONESPLITTER,AIR LOOP HVAC ZONE SPLITTER 1,NODE 66,NODE 87,VAV WITH REHEAT
! <#Nodes on Supply Air Path>,<Number of Nodes>
! <Supply Air Path Node>,<Node Type>,<Node Count>,<Node Name>,<AirLoopHVAC Name>
#Nodes on Supply Air Path,3
   Supply Air Path Node,Inlet Node,1,NODE 66,VAV WITH REHEAT
   Supply Air Path Node,Outlet Node,2,NODE 80,VAV WITH REHEAT
   Supply Air Path Node,Outlet Node,3,NODE 87,VAV WITH REHEAT
 Supply Air Path,2,VAV WITH REHEAT 1 NODE 92 SUPPLY PATH,VAV WITH REHEAT 1
   #Components on Supply Air Path,1
   Supply Air Path Component,1,AIRLOOPHVAC:ZONESPLITTER,AIR LOOP HVAC ZONE SPLITTER 2,VAV WITH REHEAT 1
     #Outlet Nodes on Supply Air Path Component,6
     Supply Air Path Component Nodes,1,AIRLOOPHVAC:ZONESPLITTER,AIR LOOP HVAC ZONE SPLITTER 2,NODE 92,NODE 108,VAV WITH REHEAT 1
     Supply Air Path Component Nodes,2,AIRLOOPHVAC:ZONESPLITTER,AIR LOOP HVAC ZONE SPLITTER 2,NODE 92,NODE 115,VAV WITH REHEAT 1
     Supply Air Path Component Nodes,3,AIRLOOPHVAC:ZONESPLITTER,AIR LOOP HVAC ZONE SPLITTER 2,NODE 92,NODE 122,VAV WITH REHEAT 1
     Supply Air Path Component Nodes,4,AIRLOOPHVAC:ZONESPLITTER,AIR LOOP HVAC ZONE SPLITTER 2,NODE 92,NODE 129,VAV WITH REHEAT 1
     Supply Air Path Component Nodes,5,AIRLOOPHVAC:ZONESPLITTER,AIR LOOP HVAC ZONE SPLITTER 2,NODE 92,NODE 136,VAV WITH REHEAT 1
     Supply Air Path Component Nodes,6,AIRLOOPHVAC:ZONESPLITTER,AIR LOOP HVAC ZONE SPLITTER 2,NODE 92,NODE 143,VAV WITH REHEAT 1
! <#Nodes on Supply Air Path>,<Number of Nodes>
! <Supply Air Path Node>,<Node Type>,<Node Count>,<Node Name>,<AirLoopHVAC Name>
#Nodes on Supply Air Path,7
   Supply Air Path Node,Inlet Node,1,NODE 92,VAV WITH REHEAT 1
   Supply Air Path Node,Outlet Node,2,NODE 108,VAV WITH REHEAT 1
   Supply Air Path Node,Outlet Node,3,NODE 115,VAV WITH REHEAT 1
   Supply Air Path Node,Outlet Node,4,NODE 122,VAV WITH REHEAT 1
   Supply Air Path Node,Outlet Node,5,NODE 129,VAV WITH REHEAT 1
   Supply Air Path Node,Outlet Node,6,NODE 136,VAV WITH REHEAT 1
   Supply Air Path Node,Outlet Node,7,NODE 143,VAV WITH REHEAT 1
 Supply Air Path,3,VAV WITH REHEAT 2 NODE 148 SUPPLY PATH,VAV WITH REHEAT 2
   #Components on Supply Air Path,1
   Supply Air Path Component,1,AIRLOOPHVAC:ZONESPLITTER,AIR LOOP HVAC ZONE SPLITTER 3,VAV WITH REHEAT 2
     #Outlet Nodes on Supply Air Path Component,6
     Supply Air Path Component Nodes,1,AIRLOOPHVAC:ZONESPLITTER,AIR LOOP HVAC ZONE SPLITTER 3,NODE 148,NODE 164,VAV WITH REHEAT 2
     Supply Air Path Component Nodes,2,AIRLOOPHVAC:ZONESPLITTER,AIR LOOP HVAC ZONE SPLITTER 3,NODE 148,NODE 171,VAV WITH REHEAT 2
     Supply Air Path Component Nodes,3,AIRLOOPHVAC:ZONESPLITTER,AIR LOOP HVAC ZONE SPLITTER 3,NODE 148,NODE 178,VAV WITH REHEAT 2
     Supply Air Path Component Nodes,4,AIRLOOPHVAC:ZONESPLITTER,AIR LOOP HVAC ZONE SPLITTER 3,NODE 148,NODE 185,VAV WITH REHEAT 2
     Supply Air Path Component Nodes,5,AIRLOOPHVAC:ZONESPLITTER,AIR LOOP HVAC ZONE SPLITTER 3,NODE 148,NODE 192,VAV WITH REHEAT 2
     Supply Air Path Component Nodes,6,AIRLOOPHVAC:ZONESPLITTER,AIR LOOP HVAC ZONE SPLITTER 3,NODE 148,NODE 199,VAV WITH REHEAT 2
! <#Nodes on Supply Air Path>,<Number of Nodes>
! <Supply Air Path Node>,<Node Type>,<Node Count>,<Node Name>,<AirLoopHVAC Name>
#Nodes on Supply Air Path,7
   Supply Air Path Node,Inlet Node,1,NODE 148,VAV WITH REHEAT 2
   Supply Air Path Node,Outlet Node,2,NODE 164,VAV WITH REHEAT 2
   Supply Air Path Node,Outlet Node,3,NODE 171,VAV WITH REHEAT 2
   Supply Air Path Node,Outlet Node,4,NODE 178,VAV WITH REHEAT 2
   Supply Air Path Node,Outlet Node,5,NODE 185,VAV WITH REHEAT 2
   Supply Air Path Node,Outlet Node,6,NODE 192,VAV WITH REHEAT 2
   Supply Air Path Node,Outlet Node,7,NODE 199,VAV WITH REHEAT 2
 Supply Air Path,4,VAV WITH REHEAT 3 NODE 204 SUPPLY PATH,VAV WITH REHEAT 3
   #Components on Supply Air Path,1
   Supply Air Path Component,1,AIRLOOPHVAC:ZONESPLITTER,AIR LOOP HVAC ZONE SPLITTER 4,VAV WITH REHEAT 3
     #Outlet Nodes on Supply Air Path Component,6
     Supply Air Path Component Nodes,1,AIRLOOPHVAC:ZONESPLITTER,AIR LOOP HVAC ZONE SPLITTER 4,NODE 204,NODE 220,VAV WITH REHEAT 3
     Supply Air Path Component Nodes,2,AIRLOOPHVAC:ZONESPLITTER,AIR LOOP HVAC ZONE SPLITTER 4,NODE 204,NODE 227,VAV WITH REHEAT 3
     Supply Air Path Component Nodes,3,AIRLOOPHVAC:ZONESPLITTER,AIR LOOP HVAC ZONE SPLITTER 4,NODE 204,NODE 234,VAV WITH REHEAT 3
     Supply Air Path Component Nodes,4,AIRLOOPHVAC:ZONESPLITTER,AIR LOOP HVAC ZONE SPLITTER 4,NODE 204,NODE 241,VAV WITH REHEAT 3
     Supply Air Path Component Nodes,5,AIRLOOPHVAC:ZONESPLITTER,AIR LOOP HVAC ZONE SPLITTER 4,NODE 204,NODE 248,VAV WITH REHEAT 3
     Supply Air Path Component Nodes,6,AIRLOOPHVAC:ZONESPLITTER,AIR LOOP HVAC ZONE SPLITTER 4,NODE 204,NODE 255,VAV WITH REHEAT 3
! <#Nodes on Supply Air Path>,<Number of Nodes>
! <Supply Air Path Node>,<Node Type>,<Node Count>,<Node Name>,<AirLoopHVAC Name>
#Nodes on Supply Air Path,7
   Supply Air Path Node,Inlet Node,1,NODE 204,VAV WITH REHEAT 3
   Supply Air Path Node,Outlet Node,2,NODE 220,VAV WITH REHEAT 3
   Supply Air Path Node,Outlet Node,3,NODE 227,VAV WITH REHEAT 3
   Supply Air Path Node,Outlet Node,4,NODE 234,VAV WITH REHEAT 3
   Supply Air Path Node,Outlet Node,5,NODE 241,VAV WITH REHEAT 3
   Supply Air Path Node,Outlet Node,6,NODE 248,VAV WITH REHEAT 3
   Supply Air Path Node,Outlet Node,7,NODE 255,VAV WITH REHEAT 3
! ===============================================================
! <#Return Air Paths>,<Number of Return Air Paths>
 #Return Air Paths,4
! <Return Air Path>,<Return Air Path Count>,<Return Air Path Name>,<AirLoopHVAC Name>
! <#Components on Return Air Path>,<Number of Components>
! <Return Air Path Component>,<Component Count>,<Component Type>,<Component Name>,<AirLoopHVAC Name>
! <#Inlet Nodes on Return Air Path Component>,<Number of Nodes>
! <Return Air Path Component Nodes>,<Node Count>,<Component Type>,<Component Name>,<Inlet Node Name>,<Outlet Node Name>,<AirLoopHVAC Name>
 Return Air Path,1,VAV WITH REHEAT RETURN PATH,VAV WITH REHEAT
   #Components on Return Air Path,1
   Return Air Path Component,1,AIRLOOPHVAC:ZONEMIXER,AIR LOOP HVAC ZONE MIXER 1,VAV WITH REHEAT
     #Inlet Nodes on Return Air Path Component,2
     Return Air Path Component Nodes,1,AIRLOOPHVAC:ZONEMIXER,AIR LOOP HVAC ZONE MIXER 1,NODE 79,NODE 67,VAV WITH REHEAT
     Return Air Path Component Nodes,2,AIRLOOPHVAC:ZONEMIXER,AIR LOOP HVAC ZONE MIXER 1,NODE 86,NODE 67,VAV WITH REHEAT
! <#Nodes on Return Air Path>,<Number of Nodes>
! <Return Air Path Node>,<Node Type>,<Node Count>,<Node Name>,<AirLoopHVAC Name>
   #Nodes on Return Air Path,3
   Return Air Path Node,Outlet Node,1,NODE 67,VAV WITH REHEAT
   Return Air Path Node,Inlet Node,2,NODE 79,VAV WITH REHEAT
   Return Air Path Node,Inlet Node,3,NODE 86,VAV WITH REHEAT
 Return Air Path,2,VAV WITH REHEAT 1 RETURN PATH,VAV WITH REHEAT 1
   #Components on Return Air Path,1
   Return Air Path Component,1,AIRLOOPHVAC:ZONEMIXER,AIR LOOP HVAC ZONE MIXER 2,VAV WITH REHEAT 1
     #Inlet Nodes on Return Air Path Component,6
     Return Air Path Component Nodes,1,AIRLOOPHVAC:ZONEMIXER,AIR LOOP HVAC ZONE MIXER 2,NODE 107,NODE 93,VAV WITH REHEAT 1
     Return Air Path Component Nodes,2,AIRLOOPHVAC:ZONEMIXER,AIR LOOP HVAC ZONE MIXER 2,NODE 114,NODE 93,VAV WITH REHEAT 1
     Return Air Path Component Nodes,3,AIRLOOPHVAC:ZONEMIXER,AIR LOOP HVAC ZONE MIXER 2,NODE 121,NODE 93,VAV WITH REHEAT 1
     Return Air Path Component Nodes,4,AIRLOOPHVAC:ZONEMIXER,AIR LOOP HVAC ZONE MIXER 2,NODE 128,NODE 93,VAV WITH REHEAT 1
     Return Air Path Component Nodes,5,AIRLOOPHVAC:ZONEMIXER,AIR LOOP HVAC ZONE MIXER 2,NODE 135,NODE 93,VAV WITH REHEAT 1
     Return Air Path Component Nodes,6,AIRLOOPHVAC:ZONEMIXER,AIR LOOP HVAC ZONE MIXER 2,NODE 142,NODE 93,VAV WITH REHEAT 1
! <#Nodes on Return Air Path>,<Number of Nodes>
! <Return Air Path Node>,<Node Type>,<Node Count>,<Node Name>,<AirLoopHVAC Name>
   #Nodes on Return Air Path,7
   Return Air Path Node,Outlet Node,1,NODE 93,VAV WITH REHEAT 1
   Return Air Path Node,Inlet Node,2,NODE 107,VAV WITH REHEAT 1
   Return Air Path Node,Inlet Node,3,NODE 114,VAV WITH REHEAT 1
   Return Air Path Node,Inlet Node,4,NODE 121,VAV WITH REHEAT 1
   Return Air Path Node,Inlet Node,5,NODE 128,VAV WITH REHEAT 1
   Return Air Path Node,Inlet Node,6,NODE 135,VAV WITH REHEAT 1
   Return Air Path Node,Inlet Node,7,NODE 142,VAV WITH REHEAT 1
 Return Air Path,3,VAV WITH REHEAT 2 RETURN PATH,VAV WITH REHEAT 2
   #Components on Return Air Path,1
   Return Air Path Component,1,AIRLOOPHVAC:ZONEMIXER,AIR LOOP HVAC ZONE MIXER 3,VAV WITH REHEAT 2
     #Inlet Nodes on Return Air Path Component,6
     Return Air Path Component Nodes,1,AIRLOOPHVAC:ZONEMIXER,AIR LOOP HVAC ZONE MIXER 3,NODE 163,NODE 149,VAV WITH REHEAT 2
     Return Air Path Component Nodes,2,AIRLOOPHVAC:ZONEMIXER,AIR LOOP HVAC ZONE MIXER 3,NODE 170,NODE 149,VAV WITH REHEAT 2
     Return Air Path Component Nodes,3,AIRLOOPHVAC:ZONEMIXER,AIR LOOP HVAC ZONE MIXER 3,NODE 177,NODE 149,VAV WITH REHEAT 2
     Return Air Path Component Nodes,4,AIRLOOPHVAC:ZONEMIXER,AIR LOOP HVAC ZONE MIXER 3,NODE 184,NODE 149,VAV WITH REHEAT 2
     Return Air Path Component Nodes,5,AIRLOOPHVAC:ZONEMIXER,AIR LOOP HVAC ZONE MIXER 3,NODE 191,NODE 149,VAV WITH REHEAT 2
     Return Air Path Component Nodes,6,AIRLOOPHVAC:ZONEMIXER,AIR LOOP HVAC ZONE MIXER 3,NODE 198,NODE 149,VAV WITH REHEAT 2
! <#Nodes on Return Air Path>,<Number of Nodes>
! <Return Air Path Node>,<Node Type>,<Node Count>,<Node Name>,<AirLoopHVAC Name>
   #Nodes on Return Air Path,7
   Return Air Path Node,Outlet Node,1,NODE 149,VAV WITH REHEAT 2
   Return Air Path Node,Inlet Node,2,NODE 163,VAV WITH REHEAT 2
   Return Air Path Node,Inlet Node,3,NODE 170,VAV WITH REHEAT 2
   Return Air Path Node,Inlet Node,4,NODE 177,VAV WITH REHEAT 2
   Return Air Path Node,Inlet Node,5,NODE 184,VAV WITH REHEAT 2
   Return Air Path Node,Inlet Node,6,NODE 191,VAV WITH REHEAT 2
   Return Air Path Node,Inlet Node,7,NODE 198,VAV WITH REHEAT 2
 Return Air Path,4,VAV WITH REHEAT 3 RETURN PATH,VAV WITH REHEAT 3
   #Components on Return Air Path,1
   Return Air Path Component,1,AIRLOOPHVAC:ZONEMIXER,AIR LOOP HVAC ZONE MIXER 4,VAV WITH REHEAT 3
     #Inlet Nodes on Return Air Path Component,6
     Return Air Path Component Nodes,1,AIRLOOPHVAC:ZONEMIXER,AIR LOOP HVAC ZONE MIXER 4,NODE 219,NODE 205,VAV WITH REHEAT 3
     Return Air Path Component Nodes,2,AIRLOOPHVAC:ZONEMIXER,AIR LOOP HVAC ZONE MIXER 4,NODE 226,NODE 205,VAV WITH REHEAT 3
     Return Air Path Component Nodes,3,AIRLOOPHVAC:ZONEMIXER,AIR LOOP HVAC ZONE MIXER 4,NODE 233,NODE 205,VAV WITH REHEAT 3
     Return Air Path Component Nodes,4,AIRLOOPHVAC:ZONEMIXER,AIR LOOP HVAC ZONE MIXER 4,NODE 240,NODE 205,VAV WITH REHEAT 3
     Return Air Path Component Nodes,5,AIRLOOPHVAC:ZONEMIXER,AIR LOOP HVAC ZONE MIXER 4,NODE 247,NODE 205,VAV WITH REHEAT 3
     Return Air Path Component Nodes,6,AIRLOOPHVAC:ZONEMIXER,AIR LOOP HVAC ZONE MIXER 4,NODE 254,NODE 205,VAV WITH REHEAT 3
! <#Nodes on Return Air Path>,<Number of Nodes>
! <Return Air Path Node>,<Node Type>,<Node Count>,<Node Name>,<AirLoopHVAC Name>
   #Nodes on Return Air Path,7
   Return Air Path Node,Outlet Node,1,NODE 205,VAV WITH REHEAT 3
   Return Air Path Node,Inlet Node,2,NODE 219,VAV WITH REHEAT 3
   Return Air Path Node,Inlet Node,3,NODE 226,VAV WITH REHEAT 3
   Return Air Path Node,Inlet Node,4,NODE 233,VAV WITH REHEAT 3
   Return Air Path Node,Inlet Node,5,NODE 240,VAV WITH REHEAT 3
   Return Air Path Node,Inlet Node,6,NODE 247,VAV WITH REHEAT 3
   Return Air Path Node,Inlet Node,7,NODE 254,VAV WITH REHEAT 3
! ===============================================================
! #Outdoor Air Nodes,<Number of Outdoor Air Nodes>
 #Outdoor Air Nodes,5
! <Outdoor Air Node>,<NodeNumber>,<Node Name>
 Outdoor Air Node,293,NODE 71
 Outdoor Air Node,294,NODE 99
 Outdoor Air Node,295,NODE 155
 Outdoor Air Node,296,NODE 211
 Outdoor Air Node,297,MODEL OUTDOOR AIR NODE
! ===============================================================
! <#Component Sets>,<Number of Component Sets>
 #Component Sets,164
! <Component Set>,<Component Set Count>,<Parent Object Type>,<Parent Object Name>,<Component Type>,<Component Name>,<Inlet Node ID>,<Outlet Node ID>,<Description>
 Component Set,1,BRANCH,VAV WITH REHEAT MAIN BRANCH,FAN:VARIABLEVOLUME,SYS6 RETURN FAN,NODE 64,NODE 76,Air Nodes
 Component Set,2,BRANCH,VAV WITH REHEAT MAIN BRANCH,AIRLOOPHVAC:OUTDOORAIRSYSTEM,AIR LOOP HVAC OUTDOOR AIR SYSTEM 1,NODE 76,NODE 75,Air Nodes
 Component Set,3,BRANCH,VAV WITH REHEAT MAIN BRANCH,COIL:COOLING:WATER,COIL COOLING WATER 1,NODE 75,NODE 74,Air Nodes
 Component Set,4,BRANCH,VAV WITH REHEAT MAIN BRANCH,COIL:HEATING:WATER,COIL HEATING WATER 1,NODE 74,NODE 73,Air Nodes
 Component Set,5,BRANCH,VAV WITH REHEAT MAIN BRANCH,FAN:VARIABLEVOLUME,SYS6 SUPPLY FAN,NODE 73,NODE 65,Air Nodes
 Component Set,6,BRANCH,VAV WITH REHEAT 1 MAIN BRANCH,FAN:VARIABLEVOLUME,SYS6 RETURN FAN 1,NODE 90,NODE 104,Air Nodes
 Component Set,7,BRANCH,VAV WITH REHEAT 1 MAIN BRANCH,AIRLOOPHVAC:OUTDOORAIRSYSTEM,AIR LOOP HVAC OUTDOOR AIR SYSTEM 2,NODE 104,NODE 103,Air Nodes
 Component Set,8,BRANCH,VAV WITH REHEAT 1 MAIN BRANCH,COIL:COOLING:WATER,COIL COOLING WATER 2,NODE 103,NODE 102,Air Nodes
 Component Set,9,BRANCH,VAV WITH REHEAT 1 MAIN BRANCH,COIL:HEATING:WATER,COIL HEATING WATER 4,NODE 102,NODE 101,Air Nodes
 Component Set,10,BRANCH,VAV WITH REHEAT 1 MAIN BRANCH,FAN:VARIABLEVOLUME,SYS6 SUPPLY FAN 1,NODE 101,NODE 91,Air Nodes
 Component Set,11,BRANCH,VAV WITH REHEAT 2 MAIN BRANCH,FAN:VARIABLEVOLUME,SYS6 RETURN FAN 2,NODE 146,NODE 160,Air Nodes
 Component Set,12,BRANCH,VAV WITH REHEAT 2 MAIN BRANCH,AIRLOOPHVAC:OUTDOORAIRSYSTEM,AIR LOOP HVAC OUTDOOR AIR SYSTEM 3,NODE 160,NODE 159,Air Nodes
 Component Set,13,BRANCH,VAV WITH REHEAT 2 MAIN BRANCH,COIL:COOLING:WATER,COIL COOLING WATER 3,NODE 159,NODE 158,Air Nodes
 Component Set,14,BRANCH,VAV WITH REHEAT 2 MAIN BRANCH,COIL:HEATING:WATER,COIL HEATING WATER 11,NODE 158,NODE 157,Air Nodes
 Component Set,15,BRANCH,VAV WITH REHEAT 2 MAIN BRANCH,FAN:VARIABLEVOLUME,SYS6 SUPPLY FAN 2,NODE 157,NODE 147,Air Nodes
 Component Set,16,BRANCH,VAV WITH REHEAT 3 MAIN BRANCH,FAN:VARIABLEVOLUME,SYS6 RETURN FAN 3,NODE 202,NODE 216,Air Nodes
 Component Set,17,BRANCH,VAV WITH REHEAT 3 MAIN BRANCH,AIRLOOPHVAC:OUTDOORAIRSYSTEM,AIR LOOP HVAC OUTDOOR AIR SYSTEM 4,NODE 216,NODE 215,Air Nodes
 Component Set,18,BRANCH,VAV WITH REHEAT 3 MAIN BRANCH,COIL:COOLING:WATER,COIL COOLING WATER 4,NODE 215,NODE 214,Air Nodes
 Component Set,19,BRANCH,VAV WITH REHEAT 3 MAIN BRANCH,COIL:HEATING:WATER,COIL HEATING WATER 18,NODE 214,NODE 213,Air Nodes
 Component Set,20,BRANCH,VAV WITH REHEAT 3 MAIN BRANCH,FAN:VARIABLEVOLUME,SYS6 SUPPLY FAN 3,NODE 213,NODE 203,Air Nodes
 Component Set,21,BRANCH,CHILLED WATER LOOP SUPPLY INLET BRANCH,PUMP:CONSTANTSPEED,PUMP CONSTANT SPEED 1,NODE 37,NODE 43,Water Nodes
 Component Set,22,BRANCH,CHILLED WATER LOOP SUPPLY BRANCH 1,CHILLER:ELECTRIC:EIR,PRIMARY CHILLER WATERCOOLED SCROLL,NODE 39,NODE 44,Chilled Water Nodes
 Component Set,23,BRANCH,CHILLED WATER LOOP SUPPLY BRANCH 2,CHILLER:ELECTRIC:EIR,SECONDARY CHILLER WATERCOOLED SCROLL,NODE 45,NODE 46,Chilled Water Nodes
 Component Set,24,BRANCH,CHILLED WATER LOOP SUPPLY BRANCH 3,PIPE:ADIABATIC,PIPE ADIABATIC 3,NODE 47,NODE 48,Pipe Nodes
 Component Set,25,BRANCH,CHILLED WATER LOOP SUPPLY OUTLET BRANCH,PIPE:ADIABATIC,PIPE ADIABATIC 4,NODE 49,NODE 38,Pipe Nodes
 Component Set,26,BRANCH,CHILLED WATER LOOP DEMAND INLET BRANCH,PIPE:ADIABATIC,CHILLED WATER LOOP DEMAND INLET PIPE,NODE 40,CHILLED WATER LOOP DEMAND INLET PIPE NODE,Pipe Nodes
 Component Set,27,BRANCH,CHILLED WATER LOOP DEMAND BRANCH 1,COIL:COOLING:WATER,COIL COOLING WATER 1,NODE 42,NODE 70,Water Nodes
 Component Set,28,BRANCH,CHILLED WATER LOOP DEMAND BRANCH 2,COIL:COOLING:WATER,COIL COOLING WATER 2,NODE 97,NODE 98,Water Nodes
 Component Set,29,BRANCH,CHILLED WATER LOOP DEMAND BRANCH 3,COIL:COOLING:WATER,COIL COOLING WATER 3,NODE 153,NODE 154,Water Nodes
 Component Set,30,BRANCH,CHILLED WATER LOOP DEMAND BRANCH 4,COIL:COOLING:WATER,COIL COOLING WATER 4,NODE 209,NODE 210,Water Nodes
 Component Set,31,BRANCH,CHILLED WATER LOOP DEMAND BYPASS BRANCH,PIPE:ADIABATIC,CHILLED WATER LOOP DEMAND BYPASS PIPE,CHILLED WATER LOOP DEMAND BYPASS PIPE INLET NODE,CHILLED WATER LOOP DEMAND BYPASS PIPE OUTLET NODE,Pipe Nodes
 Component Set,32,BRANCH,CHILLED WATER LOOP DEMAND OUTLET BRANCH,PIPE:ADIABATIC,CHILLED WATER LOOP DEMAND OUTLET PIPE,CHILLED WATER LOOP DEMAND OUTLET PIPE NODE,NODE 41,Pipe Nodes
 Component Set,33,BRANCH,CONDENSER WATER LOOP SUPPLY INLET BRANCH,PUMP:CONSTANTSPEED,PUMP CONSTANT SPEED 2,NODE 50,NODE 56,Water Nodes
 Component Set,34,BRANCH,CONDENSER WATER LOOP SUPPLY BRANCH 1,COOLINGTOWER:SINGLESPEED,COOLING TOWER SINGLE SPEED 1,NODE 52,NODE 57,Chilled Water Nodes
 Component Set,35,BRANCH,CONDENSER WATER LOOP SUPPLY BRANCH 2,PIPE:ADIABATIC,PIPE ADIABATIC 5,NODE 58,NODE 59,Pipe Nodes
 Component Set,36,BRANCH,CONDENSER WATER LOOP SUPPLY OUTLET BRANCH,PIPE:ADIABATIC,PIPE ADIABATIC 6,NODE 60,NODE 51,Pipe Nodes
 Component Set,37,BRANCH,CONDENSER WATER LOOP DEMAND INLET BRANCH,PIPE:ADIABATIC,CONDENSER WATER LOOP DEMAND INLET PIPE,NODE 53,CONDENSER WATER LOOP DEMAND INLET PIPE NODE,Pipe Nodes
 Component Set,38,BRANCH,CONDENSER WATER LOOP DEMAND BRANCH 1,CHILLER:ELECTRIC:EIR,PRIMARY CHILLER WATERCOOLED SCROLL,NODE 55,NODE 61,Condenser Water Nodes
 Component Set,39,BRANCH,CONDENSER WATER LOOP DEMAND BRANCH 2,CHILLER:ELECTRIC:EIR,SECONDARY CHILLER WATERCOOLED SCROLL,NODE 62,NODE 63,Condenser Water Nodes
 Component Set,40,BRANCH,CONDENSER WATER LOOP DEMAND BYPASS BRANCH,PIPE:ADIABATIC,CONDENSER WATER LOOP DEMAND BYPASS PIPE,CONDENSER WATER LOOP DEMAND BYPASS PIPE INLET NODE,CONDENSER WATER LOOP DEMAND BYPASS PIPE OUTLET NODE,Pipe Nodes
 Component Set,41,BRANCH,CONDENSER WATER LOOP DEMAND OUTLET BRANCH,PIPE:ADIABATIC,CONDENSER WATER LOOP DEMAND OUTLET PIPE,CONDENSER WATER LOOP DEMAND OUTLET PIPE NODE,NODE 54,Pipe Nodes
 Component Set,42,BRANCH,HOT WATER LOOP SUPPLY INLET BRANCH,PUMP:VARIABLESPEED,PUMP VARIABLE SPEED 1,NODE 24,NODE 30,Water Nodes
 Component Set,43,BRANCH,HOT WATER LOOP SUPPLY BRANCH 1,BOILER:HOTWATER,PRIMARY BOILER,NODE 26,NODE 31,Hot Water Nodes
 Component Set,44,BRANCH,HOT WATER LOOP SUPPLY BRANCH 2,BOILER:HOTWATER,SECONDARY BOILER,NODE 32,NODE 33,Hot Water Nodes
 Component Set,45,BRANCH,HOT WATER LOOP SUPPLY BRANCH 3,PIPE:ADIABATIC,PIPE ADIABATIC 1,NODE 34,NODE 35,Pipe Nodes
 Component Set,46,BRANCH,HOT WATER LOOP SUPPLY OUTLET BRANCH,PIPE:ADIABATIC,PIPE ADIABATIC 2,NODE 36,NODE 25,Pipe Nodes
 Component Set,47,BRANCH,HOT WATER LOOP DEMAND INLET BRANCH,PIPE:ADIABATIC,HOT WATER LOOP DEMAND INLET PIPE,NODE 27,HOT WATER LOOP DEMAND INLET PIPE NODE,Pipe Nodes
 Component Set,48,BRANCH,HOT WATER LOOP DEMAND BRANCH 1,COIL:HEATING:WATER,COIL HEATING WATER 1,NODE 29,NODE 69,Water Nodes
 Component Set,49,BRANCH,HOT WATER LOOP DEMAND BRANCH 2,COIL:HEATING:WATER,COIL HEATING WATER 2,NODE 77,NODE 78,Water Nodes
 Component Set,50,BRANCH,HOT WATER LOOP DEMAND BRANCH 3,ZONEHVAC:BASEBOARD:CONVECTIVE:WATER,ZONE HVAC BASEBOARD CONVECTIVE WATER 1,NODE 81,NODE 82,Hot Water Nodes
 Component Set,51,BRANCH,HOT WATER LOOP DEMAND BRANCH 4,COIL:HEATING:WATER,COIL HEATING WATER 3,NODE 83,NODE 84,Water Nodes
 Component Set,52,BRANCH,HOT WATER LOOP DEMAND BRANCH 5,ZONEHVAC:BASEBOARD:CONVECTIVE:WATER,ZONE HVAC BASEBOARD CONVECTIVE WATER 2,NODE 88,NODE 89,Hot Water Nodes
 Component Set,53,BRANCH,HOT WATER LOOP DEMAND BRANCH 6,COIL:HEATING:WATER,COIL HEATING WATER 4,NODE 95,NODE 96,Water Nodes
 Component Set,54,BRANCH,HOT WATER LOOP DEMAND BRANCH 7,COIL:HEATING:WATER,COIL HEATING WATER 5,NODE 105,NODE 106,Water Nodes
 Component Set,55,BRANCH,HOT WATER LOOP DEMAND BRANCH 8,ZONEHVAC:BASEBOARD:CONVECTIVE:WATER,ZONE HVAC BASEBOARD CONVECTIVE WATER 3,NODE 109,NODE 110,Hot Water Nodes
 Component Set,56,BRANCH,HOT WATER LOOP DEMAND BRANCH 9,COIL:HEATING:WATER,COIL HEATING WATER 6,NODE 111,NODE 112,Water Nodes
 Component Set,57,BRANCH,HOT WATER LOOP DEMAND BRANCH 10,ZONEHVAC:BASEBOARD:CONVECTIVE:WATER,ZONE HVAC BASEBOARD CONVECTIVE WATER 4,NODE 116,NODE 117,Hot Water Nodes
 Component Set,58,BRANCH,HOT WATER LOOP DEMAND BRANCH 11,COIL:HEATING:WATER,COIL HEATING WATER 7,NODE 118,NODE 119,Water Nodes
 Component Set,59,BRANCH,HOT WATER LOOP DEMAND BRANCH 12,ZONEHVAC:BASEBOARD:CONVECTIVE:WATER,ZONE HVAC BASEBOARD CONVECTIVE WATER 5,NODE 123,NODE 124,Hot Water Nodes
 Component Set,60,BRANCH,HOT WATER LOOP DEMAND BRANCH 13,COIL:HEATING:WATER,COIL HEATING WATER 8,NODE 125,NODE 126,Water Nodes
 Component Set,61,BRANCH,HOT WATER LOOP DEMAND BRANCH 14,ZONEHVAC:BASEBOARD:CONVECTIVE:WATER,ZONE HVAC BASEBOARD CONVECTIVE WATER 6,NODE 130,NODE 131,Hot Water Nodes
 Component Set,62,BRANCH,HOT WATER LOOP DEMAND BRANCH 15,COIL:HEATING:WATER,COIL HEATING WATER 9,NODE 132,NODE 133,Water Nodes
 Component Set,63,BRANCH,HOT WATER LOOP DEMAND BRANCH 16,ZONEHVAC:BASEBOARD:CONVECTIVE:WATER,ZONE HVAC BASEBOARD CONVECTIVE WATER 7,NODE 137,NODE 138,Hot Water Nodes
 Component Set,64,BRANCH,HOT WATER LOOP DEMAND BRANCH 17,COIL:HEATING:WATER,COIL HEATING WATER 10,NODE 139,NODE 140,Water Nodes
 Component Set,65,BRANCH,HOT WATER LOOP DEMAND BRANCH 18,ZONEHVAC:BASEBOARD:CONVECTIVE:WATER,ZONE HVAC BASEBOARD CONVECTIVE WATER 8,NODE 144,NODE 145,Hot Water Nodes
 Component Set,66,BRANCH,HOT WATER LOOP DEMAND BRANCH 19,COIL:HEATING:WATER,COIL HEATING WATER 11,NODE 151,NODE 152,Water Nodes
 Component Set,67,BRANCH,HOT WATER LOOP DEMAND BRANCH 20,COIL:HEATING:WATER,COIL HEATING WATER 12,NODE 161,NODE 162,Water Nodes
 Component Set,68,BRANCH,HOT WATER LOOP DEMAND BRANCH 21,ZONEHVAC:BASEBOARD:CONVECTIVE:WATER,ZONE HVAC BASEBOARD CONVECTIVE WATER 9,NODE 165,NODE 166,Hot Water Nodes
 Component Set,69,BRANCH,HOT WATER LOOP DEMAND BRANCH 22,COIL:HEATING:WATER,COIL HEATING WATER 13,NODE 167,NODE 168,Water Nodes
 Component Set,70,BRANCH,HOT WATER LOOP DEMAND BRANCH 23,ZONEHVAC:BASEBOARD:CONVECTIVE:WATER,ZONE HVAC BASEBOARD CONVECTIVE WATER 10,NODE 172,NODE 173,Hot Water Nodes
 Component Set,71,BRANCH,HOT WATER LOOP DEMAND BRANCH 24,COIL:HEATING:WATER,COIL HEATING WATER 14,NODE 174,NODE 175,Water Nodes
 Component Set,72,BRANCH,HOT WATER LOOP DEMAND BRANCH 25,ZONEHVAC:BASEBOARD:CONVECTIVE:WATER,ZONE HVAC BASEBOARD CONVECTIVE WATER 11,NODE 179,NODE 180,Hot Water Nodes
 Component Set,73,BRANCH,HOT WATER LOOP DEMAND BRANCH 26,COIL:HEATING:WATER,COIL HEATING WATER 15,NODE 181,NODE 182,Water Nodes
 Component Set,74,BRANCH,HOT WATER LOOP DEMAND BRANCH 27,ZONEHVAC:BASEBOARD:CONVECTIVE:WATER,ZONE HVAC BASEBOARD CONVECTIVE WATER 12,NODE 186,NODE 187,Hot Water Nodes
 Component Set,75,BRANCH,HOT WATER LOOP DEMAND BRANCH 28,COIL:HEATING:WATER,COIL HEATING WATER 16,NODE 188,NODE 189,Water Nodes
 Component Set,76,BRANCH,HOT WATER LOOP DEMAND BRANCH 29,ZONEHVAC:BASEBOARD:CONVECTIVE:WATER,ZONE HVAC BASEBOARD CONVECTIVE WATER 13,NODE 193,NODE 194,Hot Water Nodes
 Component Set,77,BRANCH,HOT WATER LOOP DEMAND BRANCH 30,COIL:HEATING:WATER,COIL HEATING WATER 17,NODE 195,NODE 196,Water Nodes
 Component Set,78,BRANCH,HOT WATER LOOP DEMAND BRANCH 31,ZONEHVAC:BASEBOARD:CONVECTIVE:WATER,ZONE HVAC BASEBOARD CONVECTIVE WATER 14,NODE 200,NODE 201,Hot Water Nodes
 Component Set,79,BRANCH,HOT WATER LOOP DEMAND BRANCH 32,COIL:HEATING:WATER,COIL HEATING WATER 18,NODE 207,NODE 208,Water Nodes
 Component Set,80,BRANCH,HOT WATER LOOP DEMAND BRANCH 33,COIL:HEATING:WATER,COIL HEATING WATER 19,NODE 217,NODE 218,Water Nodes
 Component Set,81,BRANCH,HOT WATER LOOP DEMAND BRANCH 34,ZONEHVAC:BASEBOARD:CONVECTIVE:WATER,ZONE HVAC BASEBOARD CONVECTIVE WATER 15,NODE 221,NODE 222,Hot Water Nodes
 Component Set,82,BRANCH,HOT WATER LOOP DEMAND BRANCH 35,COIL:HEATING:WATER,COIL HEATING WATER 20,NODE 223,NODE 224,Water Nodes
 Component Set,83,BRANCH,HOT WATER LOOP DEMAND BRANCH 36,ZONEHVAC:BASEBOARD:CONVECTIVE:WATER,ZONE HVAC BASEBOARD CONVECTIVE WATER 16,NODE 228,NODE 229,Hot Water Nodes
 Component Set,84,BRANCH,HOT WATER LOOP DEMAND BRANCH 37,COIL:HEATING:WATER,COIL HEATING WATER 21,NODE 230,NODE 231,Water Nodes
 Component Set,85,BRANCH,HOT WATER LOOP DEMAND BRANCH 38,ZONEHVAC:BASEBOARD:CONVECTIVE:WATER,ZONE HVAC BASEBOARD CONVECTIVE WATER 17,NODE 235,NODE 236,Hot Water Nodes
 Component Set,86,BRANCH,HOT WATER LOOP DEMAND BRANCH 39,COIL:HEATING:WATER,COIL HEATING WATER 22,NODE 237,NODE 238,Water Nodes
 Component Set,87,BRANCH,HOT WATER LOOP DEMAND BRANCH 40,ZONEHVAC:BASEBOARD:CONVECTIVE:WATER,ZONE HVAC BASEBOARD CONVECTIVE WATER 18,NODE 242,NODE 243,Hot Water Nodes
 Component Set,88,BRANCH,HOT WATER LOOP DEMAND BRANCH 41,COIL:HEATING:WATER,COIL HEATING WATER 23,NODE 244,NODE 245,Water Nodes
 Component Set,89,BRANCH,HOT WATER LOOP DEMAND BRANCH 42,ZONEHVAC:BASEBOARD:CONVECTIVE:WATER,ZONE HVAC BASEBOARD CONVECTIVE WATER 19,NODE 249,NODE 250,Hot Water Nodes
 Component Set,90,BRANCH,HOT WATER LOOP DEMAND BRANCH 43,COIL:HEATING:WATER,COIL HEATING WATER 24,NODE 251,NODE 252,Water Nodes
 Component Set,91,BRANCH,HOT WATER LOOP DEMAND BRANCH 44,ZONEHVAC:BASEBOARD:CONVECTIVE:WATER,ZONE HVAC BASEBOARD CONVECTIVE WATER 20,NODE 256,NODE 257,Hot Water Nodes
 Component Set,92,BRANCH,HOT WATER LOOP DEMAND BYPASS BRANCH,PIPE:ADIABATIC,HOT WATER LOOP DEMAND BYPASS PIPE,HOT WATER LOOP DEMAND BYPASS PIPE INLET NODE,HOT WATER LOOP DEMAND BYPASS PIPE OUTLET NODE,Pipe Nodes
 Component Set,93,BRANCH,HOT WATER LOOP DEMAND OUTLET BRANCH,PIPE:ADIABATIC,HOT WATER LOOP DEMAND OUTLET PIPE,HOT WATER LOOP DEMAND OUTLET PIPE NODE,NODE 28,Pipe Nodes
 Component Set,94,BRANCH,MAIN SERVICE WATER LOOP SUPPLY INLET BRANCH,PUMP:CONSTANTSPEED,SERVICE WATER LOOP PUMP,NODE 258,NODE 264,Water Nodes
 Component Set,95,BRANCH,MAIN SERVICE WATER LOOP SUPPLY BRANCH 1,WATERHEATER:MIXED,1103GAL NATURALGAS WATER HEATER - 744KBTU/HR,NODE 260,NODE 265,Use Side Water Nodes
 Component Set,96,BRANCH,MAIN SERVICE WATER LOOP SUPPLY BRANCH 2,PIPE:ADIABATIC,PIPE ADIABATIC 7,NODE 266,NODE 267,Pipe Nodes
 Component Set,97,BRANCH,MAIN SERVICE WATER LOOP SUPPLY OUTLET BRANCH,PIPE:ADIABATIC,PIPE ADIABATIC 9,NODE 269,NODE 259,Pipe Nodes
 Component Set,98,BRANCH,MAIN SERVICE WATER LOOP DEMAND INLET BRANCH,PIPE:ADIABATIC,PIPE ADIABATIC 10,NODE 261,NODE 270,Pipe Nodes
 Component Set,99,BRANCH,MAIN SERVICE WATER LOOP DEMAND BRANCH 1,PIPE:ADIABATIC,PIPE ADIABATIC 8,NODE 263,NODE 268,Pipe Nodes
 Component Set,100,BRANCH,MAIN SERVICE WATER LOOP DEMAND BRANCH 2,WATERUSE:CONNECTIONS,WATER USE CONNECTIONS 1,NODE 272,NODE 273,DHW Nodes
 Component Set,101,BRANCH,MAIN SERVICE WATER LOOP DEMAND BRANCH 3,WATERUSE:CONNECTIONS,WATER USE CONNECTIONS 2,NODE 274,NODE 275,DHW Nodes
 Component Set,102,BRANCH,MAIN SERVICE WATER LOOP DEMAND BRANCH 4,WATERUSE:CONNECTIONS,WATER USE CONNECTIONS 3,NODE 276,NODE 277,DHW Nodes
 Component Set,103,BRANCH,MAIN SERVICE WATER LOOP DEMAND BRANCH 5,WATERUSE:CONNECTIONS,WATER USE CONNECTIONS 4,NODE 278,NODE 279,DHW Nodes
 Component Set,104,BRANCH,MAIN SERVICE WATER LOOP DEMAND BRANCH 6,WATERUSE:CONNECTIONS,WATER USE CONNECTIONS 5,NODE 280,NODE 281,DHW Nodes
 Component Set,105,BRANCH,MAIN SERVICE WATER LOOP DEMAND BRANCH 7,WATERUSE:CONNECTIONS,WATER USE CONNECTIONS 6,NODE 282,NODE 283,DHW Nodes
 Component Set,106,BRANCH,MAIN SERVICE WATER LOOP DEMAND BRANCH 8,WATERUSE:CONNECTIONS,WATER USE CONNECTIONS 7,NODE 284,NODE 285,DHW Nodes
 Component Set,107,BRANCH,MAIN SERVICE WATER LOOP DEMAND BRANCH 9,WATERUSE:CONNECTIONS,WATER USE CONNECTIONS 8,NODE 286,NODE 287,DHW Nodes
 Component Set,108,BRANCH,MAIN SERVICE WATER LOOP DEMAND BRANCH 10,WATERUSE:CONNECTIONS,WATER USE CONNECTIONS 9,NODE 288,NODE 289,DHW Nodes
 Component Set,109,BRANCH,MAIN SERVICE WATER LOOP DEMAND BRANCH 11,WATERUSE:CONNECTIONS,WATER USE CONNECTIONS 10,NODE 290,NODE 291,DHW Nodes
 Component Set,110,BRANCH,MAIN SERVICE WATER LOOP DEMAND BRANCH 12,WATERUSE:CONNECTIONS,WATER USE CONNECTIONS 11,NODE 292,NODE 293,DHW Nodes
 Component Set,111,BRANCH,MAIN SERVICE WATER LOOP DEMAND BRANCH 13,WATERUSE:CONNECTIONS,WATER USE CONNECTIONS 12,NODE 294,NODE 295,DHW Nodes
 Component Set,112,BRANCH,MAIN SERVICE WATER LOOP DEMAND BRANCH 14,WATERUSE:CONNECTIONS,WATER USE CONNECTIONS 13,NODE 296,NODE 297,DHW Nodes
 Component Set,113,BRANCH,MAIN SERVICE WATER LOOP DEMAND BRANCH 15,WATERUSE:CONNECTIONS,WATER USE CONNECTIONS 14,NODE 298,NODE 299,DHW Nodes
 Component Set,114,BRANCH,MAIN SERVICE WATER LOOP DEMAND BRANCH 16,WATERUSE:CONNECTIONS,WATER USE CONNECTIONS 15,NODE 300,NODE 301,DHW Nodes
 Component Set,115,BRANCH,MAIN SERVICE WATER LOOP DEMAND BRANCH 17,WATERUSE:CONNECTIONS,WATER USE CONNECTIONS 16,NODE 302,NODE 303,DHW Nodes
 Component Set,116,BRANCH,MAIN SERVICE WATER LOOP DEMAND BRANCH 18,WATERUSE:CONNECTIONS,WATER USE CONNECTIONS 17,NODE 304,NODE 305,DHW Nodes
 Component Set,117,BRANCH,MAIN SERVICE WATER LOOP DEMAND BRANCH 19,WATERUSE:CONNECTIONS,WATER USE CONNECTIONS 18,NODE 306,NODE 307,DHW Nodes
 Component Set,118,BRANCH,MAIN SERVICE WATER LOOP DEMAND BRANCH 20,WATERUSE:CONNECTIONS,WATER USE CONNECTIONS 19,NODE 308,NODE 309,DHW Nodes
 Component Set,119,BRANCH,MAIN SERVICE WATER LOOP DEMAND BYPASS BRANCH,PIPE:ADIABATIC,MAIN SERVICE WATER LOOP DEMAND BYPASS PIPE,MAIN SERVICE WATER LOOP DEMAND BYPASS PIPE INLET NODE,MAIN SERVICE WATER LOOP DEMAND BYPASS PIPE OUTLET NODE,Pipe Nodes
 Component Set,120,BRANCH,MAIN SERVICE WATER LOOP DEMAND OUTLET BRANCH,PIPE:ADIABATIC,PIPE ADIABATIC 11,NODE 271,NODE 262,Pipe Nodes
 Component Set,121,ZONEHVAC:AIRDISTRIBUTIONUNIT,ADU AIR TERMINAL SINGLE DUCT VAV REHEAT 1,AIRTERMINAL:SINGLEDUCT:VAV:REHEAT,AIR TERMINAL SINGLE DUCT VAV REHEAT 1,NODE 80,NODE 68,Air Nodes
 Component Set,122,ZONEHVAC:AIRDISTRIBUTIONUNIT,ADU AIR TERMINAL SINGLE DUCT VAV REHEAT 3,AIRTERMINAL:SINGLEDUCT:VAV:REHEAT,AIR TERMINAL SINGLE DUCT VAV REHEAT 3,NODE 108,NODE 94,Air Nodes
 Component Set,123,ZONEHVAC:AIRDISTRIBUTIONUNIT,ADU AIR TERMINAL SINGLE DUCT VAV REHEAT 9,AIRTERMINAL:SINGLEDUCT:VAV:REHEAT,AIR TERMINAL SINGLE DUCT VAV REHEAT 9,NODE 164,NODE 150,Air Nodes
 Component Set,124,ZONEHVAC:AIRDISTRIBUTIONUNIT,ADU AIR TERMINAL SINGLE DUCT VAV REHEAT 15,AIRTERMINAL:SINGLEDUCT:VAV:REHEAT,AIR TERMINAL SINGLE DUCT VAV REHEAT 15,NODE 220,NODE 206,Air Nodes
 Component Set,125,ZONEHVAC:AIRDISTRIBUTIONUNIT,ADU AIR TERMINAL SINGLE DUCT VAV REHEAT 2,AIRTERMINAL:SINGLEDUCT:VAV:REHEAT,AIR TERMINAL SINGLE DUCT VAV REHEAT 2,NODE 87,NODE 85,Air Nodes
 Component Set,126,ZONEHVAC:AIRDISTRIBUTIONUNIT,ADU AIR TERMINAL SINGLE DUCT VAV REHEAT 4,AIRTERMINAL:SINGLEDUCT:VAV:REHEAT,AIR TERMINAL SINGLE DUCT VAV REHEAT 4,NODE 115,NODE 113,Air Nodes
 Component Set,127,ZONEHVAC:AIRDISTRIBUTIONUNIT,ADU AIR TERMINAL SINGLE DUCT VAV REHEAT 10,AIRTERMINAL:SINGLEDUCT:VAV:REHEAT,AIR TERMINAL SINGLE DUCT VAV REHEAT 10,NODE 171,NODE 169,Air Nodes
 Component Set,128,ZONEHVAC:AIRDISTRIBUTIONUNIT,ADU AIR TERMINAL SINGLE DUCT VAV REHEAT 16,AIRTERMINAL:SINGLEDUCT:VAV:REHEAT,AIR TERMINAL SINGLE DUCT VAV REHEAT 16,NODE 227,NODE 225,Air Nodes
 Component Set,129,ZONEHVAC:AIRDISTRIBUTIONUNIT,ADU AIR TERMINAL SINGLE DUCT VAV REHEAT 5,AIRTERMINAL:SINGLEDUCT:VAV:REHEAT,AIR TERMINAL SINGLE DUCT VAV REHEAT 5,NODE 122,NODE 120,Air Nodes
 Component Set,130,ZONEHVAC:AIRDISTRIBUTIONUNIT,ADU AIR TERMINAL SINGLE DUCT VAV REHEAT 6,AIRTERMINAL:SINGLEDUCT:VAV:REHEAT,AIR TERMINAL SINGLE DUCT VAV REHEAT 6,NODE 129,NODE 127,Air Nodes
 Component Set,131,ZONEHVAC:AIRDISTRIBUTIONUNIT,ADU AIR TERMINAL SINGLE DUCT VAV REHEAT 7,AIRTERMINAL:SINGLEDUCT:VAV:REHEAT,AIR TERMINAL SINGLE DUCT VAV REHEAT 7,NODE 136,NODE 134,Air Nodes
 Component Set,132,ZONEHVAC:AIRDISTRIBUTIONUNIT,ADU AIR TERMINAL SINGLE DUCT VAV REHEAT 8,AIRTERMINAL:SINGLEDUCT:VAV:REHEAT,AIR TERMINAL SINGLE DUCT VAV REHEAT 8,NODE 143,NODE 141,Air Nodes
 Component Set,133,ZONEHVAC:AIRDISTRIBUTIONUNIT,ADU AIR TERMINAL SINGLE DUCT VAV REHEAT 11,AIRTERMINAL:SINGLEDUCT:VAV:REHEAT,AIR TERMINAL SINGLE DUCT VAV REHEAT 11,NODE 178,NODE 176,Air Nodes
 Component Set,134,ZONEHVAC:AIRDISTRIBUTIONUNIT,ADU AIR TERMINAL SINGLE DUCT VAV REHEAT 12,AIRTERMINAL:SINGLEDUCT:VAV:REHEAT,AIR TERMINAL SINGLE DUCT VAV REHEAT 12,NODE 185,NODE 183,Air Nodes
 Component Set,135,ZONEHVAC:AIRDISTRIBUTIONUNIT,ADU AIR TERMINAL SINGLE DUCT VAV REHEAT 13,AIRTERMINAL:SINGLEDUCT:VAV:REHEAT,AIR TERMINAL SINGLE DUCT VAV REHEAT 13,NODE 192,NODE 190,Air Nodes
 Component Set,136,ZONEHVAC:AIRDISTRIBUTIONUNIT,ADU AIR TERMINAL SINGLE DUCT VAV REHEAT 14,AIRTERMINAL:SINGLEDUCT:VAV:REHEAT,AIR TERMINAL SINGLE DUCT VAV REHEAT 14,NODE 199,NODE 197,Air Nodes
 Component Set,137,ZONEHVAC:AIRDISTRIBUTIONUNIT,ADU AIR TERMINAL SINGLE DUCT VAV REHEAT 17,AIRTERMINAL:SINGLEDUCT:VAV:REHEAT,AIR TERMINAL SINGLE DUCT VAV REHEAT 17,NODE 234,NODE 232,Air Nodes
 Component Set,138,ZONEHVAC:AIRDISTRIBUTIONUNIT,ADU AIR TERMINAL SINGLE DUCT VAV REHEAT 18,AIRTERMINAL:SINGLEDUCT:VAV:REHEAT,AIR TERMINAL SINGLE DUCT VAV REHEAT 18,NODE 241,NODE 239,Air Nodes
 Component Set,139,ZONEHVAC:AIRDISTRIBUTIONUNIT,ADU AIR TERMINAL SINGLE DUCT VAV REHEAT 19,AIRTERMINAL:SINGLEDUCT:VAV:REHEAT,AIR TERMINAL SINGLE DUCT VAV REHEAT 19,NODE 248,NODE 246,Air Nodes
 Component Set,140,ZONEHVAC:AIRDISTRIBUTIONUNIT,ADU AIR TERMINAL SINGLE DUCT VAV REHEAT 20,AIRTERMINAL:SINGLEDUCT:VAV:REHEAT,AIR TERMINAL SINGLE DUCT VAV REHEAT 20,NODE 255,NODE 253,Air Nodes
 Component Set,141,AIRTERMINAL:SINGLEDUCT:VAV:REHEAT,AIR TERMINAL SINGLE DUCT VAV REHEAT 1,COIL:HEATING:WATER,COIL HEATING WATER 2,AIR TERMINAL SINGLE DUCT VAV REHEAT 1 DAMPER OUTLET,NODE 68,Air Nodes
 Component Set,142,AIRTERMINAL:SINGLEDUCT:VAV:REHEAT,AIR TERMINAL SINGLE DUCT VAV REHEAT 3,COIL:HEATING:WATER,COIL HEATING WATER 5,AIR TERMINAL SINGLE DUCT VAV REHEAT 3 DAMPER OUTLET,NODE 94,Air Nodes
 Component Set,143,AIRTERMINAL:SINGLEDUCT:VAV:REHEAT,AIR TERMINAL SINGLE DUCT VAV REHEAT 9,COIL:HEATING:WATER,COIL HEATING WATER 12,AIR TERMINAL SINGLE DUCT VAV REHEAT 9 DAMPER OUTLET,NODE 150,Air Nodes
 Component Set,144,AIRTERMINAL:SINGLEDUCT:VAV:REHEAT,AIR TERMINAL SINGLE DUCT VAV REHEAT 15,COIL:HEATING:WATER,COIL HEATING WATER 19,AIR TERMINAL SINGLE DUCT VAV REHEAT 15 DAMPER OUTLET,NODE 206,Air Nodes
 Component Set,145,AIRTERMINAL:SINGLEDUCT:VAV:REHEAT,AIR TERMINAL SINGLE DUCT VAV REHEAT 2,COIL:HEATING:WATER,COIL HEATING WATER 3,AIR TERMINAL SINGLE DUCT VAV REHEAT 2 DAMPER OUTLET,NODE 85,Air Nodes
 Component Set,146,AIRTERMINAL:SINGLEDUCT:VAV:REHEAT,AIR TERMINAL SINGLE DUCT VAV REHEAT 4,COIL:HEATING:WATER,COIL HEATING WATER 6,AIR TERMINAL SINGLE DUCT VAV REHEAT 4 DAMPER OUTLET,NODE 113,Air Nodes
 Component Set,147,AIRTERMINAL:SINGLEDUCT:VAV:REHEAT,AIR TERMINAL SINGLE DUCT VAV REHEAT 10,COIL:HEATING:WATER,COIL HEATING WATER 13,AIR TERMINAL SINGLE DUCT VAV REHEAT 10 DAMPER OUTLET,NODE 169,Air Nodes
 Component Set,148,AIRTERMINAL:SINGLEDUCT:VAV:REHEAT,AIR TERMINAL SINGLE DUCT VAV REHEAT 16,COIL:HEATING:WATER,COIL HEATING WATER 20,AIR TERMINAL SINGLE DUCT VAV REHEAT 16 DAMPER OUTLET,NODE 225,Air Nodes
 Component Set,149,AIRTERMINAL:SINGLEDUCT:VAV:REHEAT,AIR TERMINAL SINGLE DUCT VAV REHEAT 5,COIL:HEATING:WATER,COIL HEATING WATER 7,AIR TERMINAL SINGLE DUCT VAV REHEAT 5 DAMPER OUTLET,NODE 120,Air Nodes
 Component Set,150,AIRTERMINAL:SINGLEDUCT:VAV:REHEAT,AIR TERMINAL SINGLE DUCT VAV REHEAT 6,COIL:HEATING:WATER,COIL HEATING WATER 8,AIR TERMINAL SINGLE DUCT VAV REHEAT 6 DAMPER OUTLET,NODE 127,Air Nodes
 Component Set,151,AIRTERMINAL:SINGLEDUCT:VAV:REHEAT,AIR TERMINAL SINGLE DUCT VAV REHEAT 7,COIL:HEATING:WATER,COIL HEATING WATER 9,AIR TERMINAL SINGLE DUCT VAV REHEAT 7 DAMPER OUTLET,NODE 134,Air Nodes
 Component Set,152,AIRTERMINAL:SINGLEDUCT:VAV:REHEAT,AIR TERMINAL SINGLE DUCT VAV REHEAT 8,COIL:HEATING:WATER,COIL HEATING WATER 10,AIR TERMINAL SINGLE DUCT VAV REHEAT 8 DAMPER OUTLET,NODE 141,Air Nodes
 Component Set,153,AIRTERMINAL:SINGLEDUCT:VAV:REHEAT,AIR TERMINAL SINGLE DUCT VAV REHEAT 11,COIL:HEATING:WATER,COIL HEATING WATER 14,AIR TERMINAL SINGLE DUCT VAV REHEAT 11 DAMPER OUTLET,NODE 176,Air Nodes
 Component Set,154,AIRTERMINAL:SINGLEDUCT:VAV:REHEAT,AIR TERMINAL SINGLE DUCT VAV REHEAT 12,COIL:HEATING:WATER,COIL HEATING WATER 15,AIR TERMINAL SINGLE DUCT VAV REHEAT 12 DAMPER OUTLET,NODE 183,Air Nodes
 Component Set,155,AIRTERMINAL:SINGLEDUCT:VAV:REHEAT,AIR TERMINAL SINGLE DUCT VAV REHEAT 13,COIL:HEATING:WATER,COIL HEATING WATER 16,AIR TERMINAL SINGLE DUCT VAV REHEAT 13 DAMPER OUTLET,NODE 190,Air Nodes
 Component Set,156,AIRTERMINAL:SINGLEDUCT:VAV:REHEAT,AIR TERMINAL SINGLE DUCT VAV REHEAT 14,COIL:HEATING:WATER,COIL HEATING WATER 17,AIR TERMINAL SINGLE DUCT VAV REHEAT 14 DAMPER OUTLET,NODE 197,Air Nodes
 Component Set,157,AIRTERMINAL:SINGLEDUCT:VAV:REHEAT,AIR TERMINAL SINGLE DUCT VAV REHEAT 17,COIL:HEATING:WATER,COIL HEATING WATER 21,AIR TERMINAL SINGLE DUCT VAV REHEAT 17 DAMPER OUTLET,NODE 232,Air Nodes
 Component Set,158,AIRTERMINAL:SINGLEDUCT:VAV:REHEAT,AIR TERMINAL SINGLE DUCT VAV REHEAT 18,COIL:HEATING:WATER,COIL HEATING WATER 22,AIR TERMINAL SINGLE DUCT VAV REHEAT 18 DAMPER OUTLET,NODE 239,Air Nodes
 Component Set,159,AIRTERMINAL:SINGLEDUCT:VAV:REHEAT,AIR TERMINAL SINGLE DUCT VAV REHEAT 19,COIL:HEATING:WATER,COIL HEATING WATER 23,AIR TERMINAL SINGLE DUCT VAV REHEAT 19 DAMPER OUTLET,NODE 246,Air Nodes
 Component Set,160,AIRTERMINAL:SINGLEDUCT:VAV:REHEAT,AIR TERMINAL SINGLE DUCT VAV REHEAT 20,COIL:HEATING:WATER,COIL HEATING WATER 24,AIR TERMINAL SINGLE DUCT VAV REHEAT 20 DAMPER OUTLET,NODE 253,Air Nodes
 Component Set,161,AIRLOOPHVAC:OUTDOORAIRSYSTEM,AIR LOOP HVAC OUTDOOR AIR SYSTEM 1,OUTDOORAIR:MIXER,AIR LOOP HVAC OUTDOOR AIR SYSTEM 1 OUTDOOR AIR MIXER,NODE 71,NODE 75,Air Nodes
 Component Set,162,AIRLOOPHVAC:OUTDOORAIRSYSTEM,AIR LOOP HVAC OUTDOOR AIR SYSTEM 2,OUTDOORAIR:MIXER,AIR LOOP HVAC OUTDOOR AIR SYSTEM 2 OUTDOOR AIR MIXER,NODE 99,NODE 103,Air Nodes
 Component Set,163,AIRLOOPHVAC:OUTDOORAIRSYSTEM,AIR LOOP HVAC OUTDOOR AIR SYSTEM 3,OUTDOORAIR:MIXER,AIR LOOP HVAC OUTDOOR AIR SYSTEM 3 OUTDOOR AIR MIXER,NODE 155,NODE 159,Air Nodes
 Component Set,164,AIRLOOPHVAC:OUTDOORAIRSYSTEM,AIR LOOP HVAC OUTDOOR AIR SYSTEM 4,OUTDOORAIR:MIXER,AIR LOOP HVAC OUTDOOR AIR SYSTEM 4 OUTDOOR AIR MIXER,NODE 211,NODE 215,Air Nodes
! ===============================================================
! <# Plant Loops>,<Number of Plant Loops>
 #Plant Loops,4
! <Plant Loop>,<Plant Loop Name>,<Loop Type>,<Inlet Node Name>,<Outlet Node Name>,<Branch List>,<Connector List>
! <Plant Loop Connector>,<Connector Type>,<Connector Name>,<Loop Name>,<Loop Type>,<Number of Inlets/Outlets>
! <Plant Loop Connector Branches>,<Connector Node Count>,<Connector Type>,<Connector Name>,<Inlet Branch>,<Outlet Branch>,<Loop Name>,<Loop Type>
! <Plant Loop Connector Nodes>,<Connector Node Count>,<Connector Type>,<Connector Name>,<Inlet Node>,<Outlet Node>,<Loop Name>,<Loop Type>
! <Plant Loop Supply Connection>,<Plant Loop Name>,<Supply Side Outlet Node Name>,<Demand Side Inlet Node Name>
! <Plant Loop Return Connection>,<Plant Loop Name>,<Demand Side Outlet Node Name>,<Supply Side Inlet Node Name>
 Plant Loop,CHILLED WATER LOOP,Demand,NODE 40,NODE 41,CHILLED WATER LOOP DEMAND BRANCHES,CHILLED WATER LOOP DEMAND CONNECTOR LIST
   Plant Loop Connector,Splitter,CHILLED WATER LOOP DEMAND SPLITTER,CHILLED WATER LOOP,Demand,5
     Plant Loop Connector Branches,1,Splitter,CHILLED WATER LOOP DEMAND SPLITTER,CHILLED WATER LOOP DEMAND INLET BRANCH,CHILLED WATER LOOP DEMAND BRANCH 1,CHILLED WATER LOOP,Demand
     Plant Loop Connector Nodes,   1,Splitter,CHILLED WATER LOOP DEMAND SPLITTER,CHILLED WATER LOOP DEMAND INLET PIPE NODE,NODE 42,CHILLED WATER LOOP,Demand
     Plant Loop Connector Branches,2,Splitter,CHILLED WATER LOOP DEMAND SPLITTER,CHILLED WATER LOOP DEMAND INLET BRANCH,CHILLED WATER LOOP DEMAND BRANCH 2,CHILLED WATER LOOP,Demand
     Plant Loop Connector Nodes,   2,Splitter,CHILLED WATER LOOP DEMAND SPLITTER,CHILLED WATER LOOP DEMAND INLET PIPE NODE,NODE 97,CHILLED WATER LOOP,Demand
     Plant Loop Connector Branches,3,Splitter,CHILLED WATER LOOP DEMAND SPLITTER,CHILLED WATER LOOP DEMAND INLET BRANCH,CHILLED WATER LOOP DEMAND BRANCH 3,CHILLED WATER LOOP,Demand
     Plant Loop Connector Nodes,   3,Splitter,CHILLED WATER LOOP DEMAND SPLITTER,CHILLED WATER LOOP DEMAND INLET PIPE NODE,NODE 153,CHILLED WATER LOOP,Demand
     Plant Loop Connector Branches,4,Splitter,CHILLED WATER LOOP DEMAND SPLITTER,CHILLED WATER LOOP DEMAND INLET BRANCH,CHILLED WATER LOOP DEMAND BRANCH 4,CHILLED WATER LOOP,Demand
     Plant Loop Connector Nodes,   4,Splitter,CHILLED WATER LOOP DEMAND SPLITTER,CHILLED WATER LOOP DEMAND INLET PIPE NODE,NODE 209,CHILLED WATER LOOP,Demand
     Plant Loop Connector Branches,5,Splitter,CHILLED WATER LOOP DEMAND SPLITTER,CHILLED WATER LOOP DEMAND INLET BRANCH,CHILLED WATER LOOP DEMAND BYPASS BRANCH,CHILLED WATER LOOP,Demand
     Plant Loop Connector Nodes,   5,Splitter,CHILLED WATER LOOP DEMAND SPLITTER,CHILLED WATER LOOP DEMAND INLET PIPE NODE,CHILLED WATER LOOP DEMAND BYPASS PIPE INLET NODE,CHILLED WATER LOOP,Demand
   Plant Loop Connector,Mixer,CHILLED WATER LOOP DEMAND MIXER,CHILLED WATER LOOP,Demand,5
     Plant Loop Connector Branches,1,Mixer,CHILLED WATER LOOP DEMAND MIXER,CHILLED WATER LOOP DEMAND BRANCH 1,CHILLED WATER LOOP DEMAND OUTLET BRANCH,CHILLED WATER LOOP,Demand
     Plant Loop Connector Nodes,   1,Mixer,CHILLED WATER LOOP DEMAND MIXER,NODE 70,CHILLED WATER LOOP DEMAND OUTLET PIPE NODE,CHILLED WATER LOOP,Demand
     Plant Loop Connector Branches,2,Mixer,CHILLED WATER LOOP DEMAND MIXER,CHILLED WATER LOOP DEMAND BRANCH 2,CHILLED WATER LOOP DEMAND OUTLET BRANCH,CHILLED WATER LOOP,Demand
     Plant Loop Connector Nodes,   2,Mixer,CHILLED WATER LOOP DEMAND MIXER,NODE 98,CHILLED WATER LOOP DEMAND OUTLET PIPE NODE,CHILLED WATER LOOP,Demand
     Plant Loop Connector Branches,3,Mixer,CHILLED WATER LOOP DEMAND MIXER,CHILLED WATER LOOP DEMAND BRANCH 3,CHILLED WATER LOOP DEMAND OUTLET BRANCH,CHILLED WATER LOOP,Demand
     Plant Loop Connector Nodes,   3,Mixer,CHILLED WATER LOOP DEMAND MIXER,NODE 154,CHILLED WATER LOOP DEMAND OUTLET PIPE NODE,CHILLED WATER LOOP,Demand
     Plant Loop Connector Branches,4,Mixer,CHILLED WATER LOOP DEMAND MIXER,CHILLED WATER LOOP DEMAND BRANCH 4,CHILLED WATER LOOP DEMAND OUTLET BRANCH,CHILLED WATER LOOP,Demand
     Plant Loop Connector Nodes,   4,Mixer,CHILLED WATER LOOP DEMAND MIXER,NODE 210,CHILLED WATER LOOP DEMAND OUTLET PIPE NODE,CHILLED WATER LOOP,Demand
     Plant Loop Connector Branches,5,Mixer,CHILLED WATER LOOP DEMAND MIXER,CHILLED WATER LOOP DEMAND BYPASS BRANCH,CHILLED WATER LOOP DEMAND OUTLET BRANCH,CHILLED WATER LOOP,Demand
     Plant Loop Connector Nodes,   5,Mixer,CHILLED WATER LOOP DEMAND MIXER,CHILLED WATER LOOP DEMAND BYPASS PIPE OUTLET NODE,CHILLED WATER LOOP DEMAND OUTLET PIPE NODE,CHILLED WATER LOOP,Demand
 Plant Loop,CHILLED WATER LOOP,Supply,NODE 37,NODE 38,CHILLED WATER LOOP SUPPLY BRANCHES,CHILLED WATER LOOP SUPPLY CONNECTOR LIST
   Plant Loop Connector,Splitter,CHILLED WATER LOOP SUPPLY SPLITTER,CHILLED WATER LOOP,Supply,3
     Plant Loop Connector Branches,1,Splitter,CHILLED WATER LOOP SUPPLY SPLITTER,CHILLED WATER LOOP SUPPLY INLET BRANCH,CHILLED WATER LOOP SUPPLY BRANCH 1,CHILLED WATER LOOP,Supply
     Plant Loop Connector Nodes,   1,Splitter,CHILLED WATER LOOP SUPPLY SPLITTER,NODE 43,NODE 39,CHILLED WATER LOOP,Supply
     Plant Loop Connector Branches,2,Splitter,CHILLED WATER LOOP SUPPLY SPLITTER,CHILLED WATER LOOP SUPPLY INLET BRANCH,CHILLED WATER LOOP SUPPLY BRANCH 2,CHILLED WATER LOOP,Supply
     Plant Loop Connector Nodes,   2,Splitter,CHILLED WATER LOOP SUPPLY SPLITTER,NODE 43,NODE 45,CHILLED WATER LOOP,Supply
     Plant Loop Connector Branches,3,Splitter,CHILLED WATER LOOP SUPPLY SPLITTER,CHILLED WATER LOOP SUPPLY INLET BRANCH,CHILLED WATER LOOP SUPPLY BRANCH 3,CHILLED WATER LOOP,Supply
     Plant Loop Connector Nodes,   3,Splitter,CHILLED WATER LOOP SUPPLY SPLITTER,NODE 43,NODE 47,CHILLED WATER LOOP,Supply
   Plant Loop Connector,Mixer,CHILLED WATER LOOP SUPPLY MIXER,CHILLED WATER LOOP,Supply,3
     Plant Loop Connector Branches,1,Mixer,CHILLED WATER LOOP SUPPLY MIXER,CHILLED WATER LOOP SUPPLY BRANCH 1,CHILLED WATER LOOP SUPPLY OUTLET BRANCH,CHILLED WATER LOOP,Supply
     Plant Loop Connector Nodes,   1,Mixer,CHILLED WATER LOOP SUPPLY MIXER,NODE 44,NODE 49,CHILLED WATER LOOP,Supply
     Plant Loop Connector Branches,2,Mixer,CHILLED WATER LOOP SUPPLY MIXER,CHILLED WATER LOOP SUPPLY BRANCH 2,CHILLED WATER LOOP SUPPLY OUTLET BRANCH,CHILLED WATER LOOP,Supply
     Plant Loop Connector Nodes,   2,Mixer,CHILLED WATER LOOP SUPPLY MIXER,NODE 46,NODE 49,CHILLED WATER LOOP,Supply
     Plant Loop Connector Branches,3,Mixer,CHILLED WATER LOOP SUPPLY MIXER,CHILLED WATER LOOP SUPPLY BRANCH 3,CHILLED WATER LOOP SUPPLY OUTLET BRANCH,CHILLED WATER LOOP,Supply
     Plant Loop Connector Nodes,   3,Mixer,CHILLED WATER LOOP SUPPLY MIXER,NODE 48,NODE 49,CHILLED WATER LOOP,Supply
 Plant Loop Supply Connection,CHILLED WATER LOOP,NODE 38,NODE 40
 Plant Loop Return Connection,CHILLED WATER LOOP,NODE 41,NODE 37
 Plant Loop,CONDENSER WATER LOOP,Demand,NODE 53,NODE 54,CONDENSER WATER LOOP DEMAND BRANCHES,CONDENSER WATER LOOP DEMAND CONNECTOR LIST
   Plant Loop Connector,Splitter,CONDENSER WATER LOOP DEMAND SPLITTER,CONDENSER WATER LOOP,Demand,3
     Plant Loop Connector Branches,1,Splitter,CONDENSER WATER LOOP DEMAND SPLITTER,CONDENSER WATER LOOP DEMAND INLET BRANCH,CONDENSER WATER LOOP DEMAND BRANCH 1,CONDENSER WATER LOOP,Demand
     Plant Loop Connector Nodes,   1,Splitter,CONDENSER WATER LOOP DEMAND SPLITTER,CONDENSER WATER LOOP DEMAND INLET PIPE NODE,NODE 55,CONDENSER WATER LOOP,Demand
     Plant Loop Connector Branches,2,Splitter,CONDENSER WATER LOOP DEMAND SPLITTER,CONDENSER WATER LOOP DEMAND INLET BRANCH,CONDENSER WATER LOOP DEMAND BRANCH 2,CONDENSER WATER LOOP,Demand
     Plant Loop Connector Nodes,   2,Splitter,CONDENSER WATER LOOP DEMAND SPLITTER,CONDENSER WATER LOOP DEMAND INLET PIPE NODE,NODE 62,CONDENSER WATER LOOP,Demand
     Plant Loop Connector Branches,3,Splitter,CONDENSER WATER LOOP DEMAND SPLITTER,CONDENSER WATER LOOP DEMAND INLET BRANCH,CONDENSER WATER LOOP DEMAND BYPASS BRANCH,CONDENSER WATER LOOP,Demand
     Plant Loop Connector Nodes,   3,Splitter,CONDENSER WATER LOOP DEMAND SPLITTER,CONDENSER WATER LOOP DEMAND INLET PIPE NODE,CONDENSER WATER LOOP DEMAND BYPASS PIPE INLET NODE,CONDENSER WATER LOOP,Demand
   Plant Loop Connector,Mixer,CONDENSER WATER LOOP DEMAND MIXER,CONDENSER WATER LOOP,Demand,3
     Plant Loop Connector Branches,1,Mixer,CONDENSER WATER LOOP DEMAND MIXER,CONDENSER WATER LOOP DEMAND BRANCH 1,CONDENSER WATER LOOP DEMAND OUTLET BRANCH,CONDENSER WATER LOOP,Demand
     Plant Loop Connector Nodes,   1,Mixer,CONDENSER WATER LOOP DEMAND MIXER,NODE 61,CONDENSER WATER LOOP DEMAND OUTLET PIPE NODE,CONDENSER WATER LOOP,Demand
     Plant Loop Connector Branches,2,Mixer,CONDENSER WATER LOOP DEMAND MIXER,CONDENSER WATER LOOP DEMAND BRANCH 2,CONDENSER WATER LOOP DEMAND OUTLET BRANCH,CONDENSER WATER LOOP,Demand
     Plant Loop Connector Nodes,   2,Mixer,CONDENSER WATER LOOP DEMAND MIXER,NODE 63,CONDENSER WATER LOOP DEMAND OUTLET PIPE NODE,CONDENSER WATER LOOP,Demand
     Plant Loop Connector Branches,3,Mixer,CONDENSER WATER LOOP DEMAND MIXER,CONDENSER WATER LOOP DEMAND BYPASS BRANCH,CONDENSER WATER LOOP DEMAND OUTLET BRANCH,CONDENSER WATER LOOP,Demand
     Plant Loop Connector Nodes,   3,Mixer,CONDENSER WATER LOOP DEMAND MIXER,CONDENSER WATER LOOP DEMAND BYPASS PIPE OUTLET NODE,CONDENSER WATER LOOP DEMAND OUTLET PIPE NODE,CONDENSER WATER LOOP,Demand
 Plant Loop,CONDENSER WATER LOOP,Supply,NODE 50,NODE 51,CONDENSER WATER LOOP SUPPLY BRANCHES,CONDENSER WATER LOOP SUPPLY CONNECTOR LIST
   Plant Loop Connector,Splitter,CONDENSER WATER LOOP SUPPLY SPLITTER,CONDENSER WATER LOOP,Supply,2
     Plant Loop Connector Branches,1,Splitter,CONDENSER WATER LOOP SUPPLY SPLITTER,CONDENSER WATER LOOP SUPPLY INLET BRANCH,CONDENSER WATER LOOP SUPPLY BRANCH 1,CONDENSER WATER LOOP,Supply
     Plant Loop Connector Nodes,   1,Splitter,CONDENSER WATER LOOP SUPPLY SPLITTER,NODE 56,NODE 52,CONDENSER WATER LOOP,Supply
     Plant Loop Connector Branches,2,Splitter,CONDENSER WATER LOOP SUPPLY SPLITTER,CONDENSER WATER LOOP SUPPLY INLET BRANCH,CONDENSER WATER LOOP SUPPLY BRANCH 2,CONDENSER WATER LOOP,Supply
     Plant Loop Connector Nodes,   2,Splitter,CONDENSER WATER LOOP SUPPLY SPLITTER,NODE 56,NODE 58,CONDENSER WATER LOOP,Supply
   Plant Loop Connector,Mixer,CONDENSER WATER LOOP SUPPLY MIXER,CONDENSER WATER LOOP,Supply,2
     Plant Loop Connector Branches,1,Mixer,CONDENSER WATER LOOP SUPPLY MIXER,CONDENSER WATER LOOP SUPPLY BRANCH 1,CONDENSER WATER LOOP SUPPLY OUTLET BRANCH,CONDENSER WATER LOOP,Supply
     Plant Loop Connector Nodes,   1,Mixer,CONDENSER WATER LOOP SUPPLY MIXER,NODE 57,NODE 60,CONDENSER WATER LOOP,Supply
     Plant Loop Connector Branches,2,Mixer,CONDENSER WATER LOOP SUPPLY MIXER,CONDENSER WATER LOOP SUPPLY BRANCH 2,CONDENSER WATER LOOP SUPPLY OUTLET BRANCH,CONDENSER WATER LOOP,Supply
     Plant Loop Connector Nodes,   2,Mixer,CONDENSER WATER LOOP SUPPLY MIXER,NODE 59,NODE 60,CONDENSER WATER LOOP,Supply
 Plant Loop Supply Connection,CONDENSER WATER LOOP,NODE 51,NODE 53
 Plant Loop Return Connection,CONDENSER WATER LOOP,NODE 54,NODE 50
 Plant Loop,HOT WATER LOOP,Demand,NODE 27,NODE 28,HOT WATER LOOP DEMAND BRANCHES,HOT WATER LOOP DEMAND CONNECTOR LIST
   Plant Loop Connector,Splitter,HOT WATER LOOP DEMAND SPLITTER,HOT WATER LOOP,Demand,45
     Plant Loop Connector Branches,1,Splitter,HOT WATER LOOP DEMAND SPLITTER,HOT WATER LOOP DEMAND INLET BRANCH,HOT WATER LOOP DEMAND BRANCH 1,HOT WATER LOOP,Demand
     Plant Loop Connector Nodes,   1,Splitter,HOT WATER LOOP DEMAND SPLITTER,HOT WATER LOOP DEMAND INLET PIPE NODE,NODE 29,HOT WATER LOOP,Demand
     Plant Loop Connector Branches,2,Splitter,HOT WATER LOOP DEMAND SPLITTER,HOT WATER LOOP DEMAND INLET BRANCH,HOT WATER LOOP DEMAND BRANCH 2,HOT WATER LOOP,Demand
     Plant Loop Connector Nodes,   2,Splitter,HOT WATER LOOP DEMAND SPLITTER,HOT WATER LOOP DEMAND INLET PIPE NODE,NODE 77,HOT WATER LOOP,Demand
     Plant Loop Connector Branches,3,Splitter,HOT WATER LOOP DEMAND SPLITTER,HOT WATER LOOP DEMAND INLET BRANCH,HOT WATER LOOP DEMAND BRANCH 3,HOT WATER LOOP,Demand
     Plant Loop Connector Nodes,   3,Splitter,HOT WATER LOOP DEMAND SPLITTER,HOT WATER LOOP DEMAND INLET PIPE NODE,NODE 81,HOT WATER LOOP,Demand
     Plant Loop Connector Branches,4,Splitter,HOT WATER LOOP DEMAND SPLITTER,HOT WATER LOOP DEMAND INLET BRANCH,HOT WATER LOOP DEMAND BRANCH 4,HOT WATER LOOP,Demand
     Plant Loop Connector Nodes,   4,Splitter,HOT WATER LOOP DEMAND SPLITTER,HOT WATER LOOP DEMAND INLET PIPE NODE,NODE 83,HOT WATER LOOP,Demand
     Plant Loop Connector Branches,5,Splitter,HOT WATER LOOP DEMAND SPLITTER,HOT WATER LOOP DEMAND INLET BRANCH,HOT WATER LOOP DEMAND BRANCH 5,HOT WATER LOOP,Demand
     Plant Loop Connector Nodes,   5,Splitter,HOT WATER LOOP DEMAND SPLITTER,HOT WATER LOOP DEMAND INLET PIPE NODE,NODE 88,HOT WATER LOOP,Demand
     Plant Loop Connector Branches,6,Splitter,HOT WATER LOOP DEMAND SPLITTER,HOT WATER LOOP DEMAND INLET BRANCH,HOT WATER LOOP DEMAND BRANCH 6,HOT WATER LOOP,Demand
     Plant Loop Connector Nodes,   6,Splitter,HOT WATER LOOP DEMAND SPLITTER,HOT WATER LOOP DEMAND INLET PIPE NODE,NODE 95,HOT WATER LOOP,Demand
     Plant Loop Connector Branches,7,Splitter,HOT WATER LOOP DEMAND SPLITTER,HOT WATER LOOP DEMAND INLET BRANCH,HOT WATER LOOP DEMAND BRANCH 7,HOT WATER LOOP,Demand
     Plant Loop Connector Nodes,   7,Splitter,HOT WATER LOOP DEMAND SPLITTER,HOT WATER LOOP DEMAND INLET PIPE NODE,NODE 105,HOT WATER LOOP,Demand
     Plant Loop Connector Branches,8,Splitter,HOT WATER LOOP DEMAND SPLITTER,HOT WATER LOOP DEMAND INLET BRANCH,HOT WATER LOOP DEMAND BRANCH 8,HOT WATER LOOP,Demand
     Plant Loop Connector Nodes,   8,Splitter,HOT WATER LOOP DEMAND SPLITTER,HOT WATER LOOP DEMAND INLET PIPE NODE,NODE 109,HOT WATER LOOP,Demand
     Plant Loop Connector Branches,9,Splitter,HOT WATER LOOP DEMAND SPLITTER,HOT WATER LOOP DEMAND INLET BRANCH,HOT WATER LOOP DEMAND BRANCH 9,HOT WATER LOOP,Demand
     Plant Loop Connector Nodes,   9,Splitter,HOT WATER LOOP DEMAND SPLITTER,HOT WATER LOOP DEMAND INLET PIPE NODE,NODE 111,HOT WATER LOOP,Demand
     Plant Loop Connector Branches,10,Splitter,HOT WATER LOOP DEMAND SPLITTER,HOT WATER LOOP DEMAND INLET BRANCH,HOT WATER LOOP DEMAND BRANCH 10,HOT WATER LOOP,Demand
     Plant Loop Connector Nodes,   10,Splitter,HOT WATER LOOP DEMAND SPLITTER,HOT WATER LOOP DEMAND INLET PIPE NODE,NODE 116,HOT WATER LOOP,Demand
     Plant Loop Connector Branches,11,Splitter,HOT WATER LOOP DEMAND SPLITTER,HOT WATER LOOP DEMAND INLET BRANCH,HOT WATER LOOP DEMAND BRANCH 11,HOT WATER LOOP,Demand
     Plant Loop Connector Nodes,   11,Splitter,HOT WATER LOOP DEMAND SPLITTER,HOT WATER LOOP DEMAND INLET PIPE NODE,NODE 118,HOT WATER LOOP,Demand
     Plant Loop Connector Branches,12,Splitter,HOT WATER LOOP DEMAND SPLITTER,HOT WATER LOOP DEMAND INLET BRANCH,HOT WATER LOOP DEMAND BRANCH 12,HOT WATER LOOP,Demand
     Plant Loop Connector Nodes,   12,Splitter,HOT WATER LOOP DEMAND SPLITTER,HOT WATER LOOP DEMAND INLET PIPE NODE,NODE 123,HOT WATER LOOP,Demand
     Plant Loop Connector Branches,13,Splitter,HOT WATER LOOP DEMAND SPLITTER,HOT WATER LOOP DEMAND INLET BRANCH,HOT WATER LOOP DEMAND BRANCH 13,HOT WATER LOOP,Demand
     Plant Loop Connector Nodes,   13,Splitter,HOT WATER LOOP DEMAND SPLITTER,HOT WATER LOOP DEMAND INLET PIPE NODE,NODE 125,HOT WATER LOOP,Demand
     Plant Loop Connector Branches,14,Splitter,HOT WATER LOOP DEMAND SPLITTER,HOT WATER LOOP DEMAND INLET BRANCH,HOT WATER LOOP DEMAND BRANCH 14,HOT WATER LOOP,Demand
     Plant Loop Connector Nodes,   14,Splitter,HOT WATER LOOP DEMAND SPLITTER,HOT WATER LOOP DEMAND INLET PIPE NODE,NODE 130,HOT WATER LOOP,Demand
     Plant Loop Connector Branches,15,Splitter,HOT WATER LOOP DEMAND SPLITTER,HOT WATER LOOP DEMAND INLET BRANCH,HOT WATER LOOP DEMAND BRANCH 15,HOT WATER LOOP,Demand
     Plant Loop Connector Nodes,   15,Splitter,HOT WATER LOOP DEMAND SPLITTER,HOT WATER LOOP DEMAND INLET PIPE NODE,NODE 132,HOT WATER LOOP,Demand
     Plant Loop Connector Branches,16,Splitter,HOT WATER LOOP DEMAND SPLITTER,HOT WATER LOOP DEMAND INLET BRANCH,HOT WATER LOOP DEMAND BRANCH 16,HOT WATER LOOP,Demand
     Plant Loop Connector Nodes,   16,Splitter,HOT WATER LOOP DEMAND SPLITTER,HOT WATER LOOP DEMAND INLET PIPE NODE,NODE 137,HOT WATER LOOP,Demand
     Plant Loop Connector Branches,17,Splitter,HOT WATER LOOP DEMAND SPLITTER,HOT WATER LOOP DEMAND INLET BRANCH,HOT WATER LOOP DEMAND BRANCH 17,HOT WATER LOOP,Demand
     Plant Loop Connector Nodes,   17,Splitter,HOT WATER LOOP DEMAND SPLITTER,HOT WATER LOOP DEMAND INLET PIPE NODE,NODE 139,HOT WATER LOOP,Demand
     Plant Loop Connector Branches,18,Splitter,HOT WATER LOOP DEMAND SPLITTER,HOT WATER LOOP DEMAND INLET BRANCH,HOT WATER LOOP DEMAND BRANCH 18,HOT WATER LOOP,Demand
     Plant Loop Connector Nodes,   18,Splitter,HOT WATER LOOP DEMAND SPLITTER,HOT WATER LOOP DEMAND INLET PIPE NODE,NODE 144,HOT WATER LOOP,Demand
     Plant Loop Connector Branches,19,Splitter,HOT WATER LOOP DEMAND SPLITTER,HOT WATER LOOP DEMAND INLET BRANCH,HOT WATER LOOP DEMAND BRANCH 19,HOT WATER LOOP,Demand
     Plant Loop Connector Nodes,   19,Splitter,HOT WATER LOOP DEMAND SPLITTER,HOT WATER LOOP DEMAND INLET PIPE NODE,NODE 151,HOT WATER LOOP,Demand
[...]
 Non-Parent Node Connection,AIR TERMINAL SINGLE DUCT VAV REHEAT 15 DAMPER OUTLET,AIRTERMINAL:SINGLEDUCT:VAV:REHEAT,AIR TERMINAL SINGLE DUCT VAV REHEAT 15,Outlet,1
 Non-Parent Node Connection,NODE 220,AIRTERMINAL:SINGLEDUCT:VAV:REHEAT,AIR TERMINAL SINGLE DUCT VAV REHEAT 15,Inlet,1
 Non-Parent Node Connection,AIR TERMINAL SINGLE DUCT VAV REHEAT 2 DAMPER OUTLET,AIRTERMINAL:SINGLEDUCT:VAV:REHEAT,AIR TERMINAL SINGLE DUCT VAV REHEAT 2,Outlet,1
 Non-Parent Node Connection,NODE 87,AIRTERMINAL:SINGLEDUCT:VAV:REHEAT,AIR TERMINAL SINGLE DUCT VAV REHEAT 2,Inlet,1
 Non-Parent Node Connection,AIR TERMINAL SINGLE DUCT VAV REHEAT 4 DAMPER OUTLET,AIRTERMINAL:SINGLEDUCT:VAV:REHEAT,AIR TERMINAL SINGLE DUCT VAV REHEAT 4,Outlet,1
 Non-Parent Node Connection,NODE 115,AIRTERMINAL:SINGLEDUCT:VAV:REHEAT,AIR TERMINAL SINGLE DUCT VAV REHEAT 4,Inlet,1
 Non-Parent Node Connection,AIR TERMINAL SINGLE DUCT VAV REHEAT 10 DAMPER OUTLET,AIRTERMINAL:SINGLEDUCT:VAV:REHEAT,AIR TERMINAL SINGLE DUCT VAV REHEAT 10,Outlet,1
 Non-Parent Node Connection,NODE 171,AIRTERMINAL:SINGLEDUCT:VAV:REHEAT,AIR TERMINAL SINGLE DUCT VAV REHEAT 10,Inlet,1
 Non-Parent Node Connection,AIR TERMINAL SINGLE DUCT VAV REHEAT 16 DAMPER OUTLET,AIRTERMINAL:SINGLEDUCT:VAV:REHEAT,AIR TERMINAL SINGLE DUCT VAV REHEAT 16,Outlet,1
 Non-Parent Node Connection,NODE 227,AIRTERMINAL:SINGLEDUCT:VAV:REHEAT,AIR TERMINAL SINGLE DUCT VAV REHEAT 16,Inlet,1
 Non-Parent Node Connection,AIR TERMINAL SINGLE DUCT VAV REHEAT 5 DAMPER OUTLET,AIRTERMINAL:SINGLEDUCT:VAV:REHEAT,AIR TERMINAL SINGLE DUCT VAV REHEAT 5,Outlet,1
 Non-Parent Node Connection,NODE 122,AIRTERMINAL:SINGLEDUCT:VAV:REHEAT,AIR TERMINAL SINGLE DUCT VAV REHEAT 5,Inlet,1
 Non-Parent Node Connection,AIR TERMINAL SINGLE DUCT VAV REHEAT 6 DAMPER OUTLET,AIRTERMINAL:SINGLEDUCT:VAV:REHEAT,AIR TERMINAL SINGLE DUCT VAV REHEAT 6,Outlet,1
 Non-Parent Node Connection,NODE 129,AIRTERMINAL:SINGLEDUCT:VAV:REHEAT,AIR TERMINAL SINGLE DUCT VAV REHEAT 6,Inlet,1
 Non-Parent Node Connection,AIR TERMINAL SINGLE DUCT VAV REHEAT 7 DAMPER OUTLET,AIRTERMINAL:SINGLEDUCT:VAV:REHEAT,AIR TERMINAL SINGLE DUCT VAV REHEAT 7,Outlet,1
 Non-Parent Node Connection,NODE 136,AIRTERMINAL:SINGLEDUCT:VAV:REHEAT,AIR TERMINAL SINGLE DUCT VAV REHEAT 7,Inlet,1
 Non-Parent Node Connection,AIR TERMINAL SINGLE DUCT VAV REHEAT 8 DAMPER OUTLET,AIRTERMINAL:SINGLEDUCT:VAV:REHEAT,AIR TERMINAL SINGLE DUCT VAV REHEAT 8,Outlet,1
 Non-Parent Node Connection,NODE 143,AIRTERMINAL:SINGLEDUCT:VAV:REHEAT,AIR TERMINAL SINGLE DUCT VAV REHEAT 8,Inlet,1
 Non-Parent Node Connection,AIR TERMINAL SINGLE DUCT VAV REHEAT 11 DAMPER OUTLET,AIRTERMINAL:SINGLEDUCT:VAV:REHEAT,AIR TERMINAL SINGLE DUCT VAV REHEAT 11,Outlet,1
 Non-Parent Node Connection,NODE 178,AIRTERMINAL:SINGLEDUCT:VAV:REHEAT,AIR TERMINAL SINGLE DUCT VAV REHEAT 11,Inlet,1
 Non-Parent Node Connection,AIR TERMINAL SINGLE DUCT VAV REHEAT 12 DAMPER OUTLET,AIRTERMINAL:SINGLEDUCT:VAV:REHEAT,AIR TERMINAL SINGLE DUCT VAV REHEAT 12,Outlet,1
 Non-Parent Node Connection,NODE 185,AIRTERMINAL:SINGLEDUCT:VAV:REHEAT,AIR TERMINAL SINGLE DUCT VAV REHEAT 12,Inlet,1
 Non-Parent Node Connection,AIR TERMINAL SINGLE DUCT VAV REHEAT 13 DAMPER OUTLET,AIRTERMINAL:SINGLEDUCT:VAV:REHEAT,AIR TERMINAL SINGLE DUCT VAV REHEAT 13,Outlet,1
 Non-Parent Node Connection,NODE 192,AIRTERMINAL:SINGLEDUCT:VAV:REHEAT,AIR TERMINAL SINGLE DUCT VAV REHEAT 13,Inlet,1
 Non-Parent Node Connection,AIR TERMINAL SINGLE DUCT VAV REHEAT 14 DAMPER OUTLET,AIRTERMINAL:SINGLEDUCT:VAV:REHEAT,AIR TERMINAL SINGLE DUCT VAV REHEAT 14,Outlet,1
 Non-Parent Node Connection,NODE 199,AIRTERMINAL:SINGLEDUCT:VAV:REHEAT,AIR TERMINAL SINGLE DUCT VAV REHEAT 14,Inlet,1
 Non-Parent Node Connection,AIR TERMINAL SINGLE DUCT VAV REHEAT 17 DAMPER OUTLET,AIRTERMINAL:SINGLEDUCT:VAV:REHEAT,AIR TERMINAL SINGLE DUCT VAV REHEAT 17,Outlet,1
 Non-Parent Node Connection,NODE 234,AIRTERMINAL:SINGLEDUCT:VAV:REHEAT,AIR TERMINAL SINGLE DUCT VAV REHEAT 17,Inlet,1
 Non-Parent Node Connection,AIR TERMINAL SINGLE DUCT VAV REHEAT 18 DAMPER OUTLET,AIRTERMINAL:SINGLEDUCT:VAV:REHEAT,AIR TERMINAL SINGLE DUCT VAV REHEAT 18,Outlet,1
 Non-Parent Node Connection,NODE 241,AIRTERMINAL:SINGLEDUCT:VAV:REHEAT,AIR TERMINAL SINGLE DUCT VAV REHEAT 18,Inlet,1
 Non-Parent Node Connection,AIR TERMINAL SINGLE DUCT VAV REHEAT 19 DAMPER OUTLET,AIRTERMINAL:SINGLEDUCT:VAV:REHEAT,AIR TERMINAL SINGLE DUCT VAV REHEAT 19,Outlet,1
 Non-Parent Node Connection,NODE 248,AIRTERMINAL:SINGLEDUCT:VAV:REHEAT,AIR TERMINAL SINGLE DUCT VAV REHEAT 19,Inlet,1
 Non-Parent Node Connection,AIR TERMINAL SINGLE DUCT VAV REHEAT 20 DAMPER OUTLET,AIRTERMINAL:SINGLEDUCT:VAV:REHEAT,AIR TERMINAL SINGLE DUCT VAV REHEAT 20,Outlet,1
 Non-Parent Node Connection,NODE 255,AIRTERMINAL:SINGLEDUCT:VAV:REHEAT,AIR TERMINAL SINGLE DUCT VAV REHEAT 20,Inlet,1
 Non-Parent Node Connection,NODE 74,CONTROLLER:WATERCOIL,CONTROLLER WATER COIL 2,Sensor,1
 Non-Parent Node Connection,NODE 42,CONTROLLER:WATERCOIL,CONTROLLER WATER COIL 2,Actuator,1
 Non-Parent Node Connection,NODE 73,CONTROLLER:WATERCOIL,CONTROLLER WATER COIL 1,Sensor,1
 Non-Parent Node Connection,NODE 29,CONTROLLER:WATERCOIL,CONTROLLER WATER COIL 1,Actuator,1
 Non-Parent Node Connection,NODE 102,CONTROLLER:WATERCOIL,CONTROLLER WATER COIL 6,Sensor,1
 Non-Parent Node Connection,NODE 97,CONTROLLER:WATERCOIL,CONTROLLER WATER COIL 6,Actuator,1
 Non-Parent Node Connection,NODE 101,CONTROLLER:WATERCOIL,CONTROLLER WATER COIL 5,Sensor,1
 Non-Parent Node Connection,NODE 95,CONTROLLER:WATERCOIL,CONTROLLER WATER COIL 5,Actuator,1
 Non-Parent Node Connection,NODE 158,CONTROLLER:WATERCOIL,CONTROLLER WATER COIL 14,Sensor,1
 Non-Parent Node Connection,NODE 153,CONTROLLER:WATERCOIL,CONTROLLER WATER COIL 14,Actuator,1
 Non-Parent Node Connection,NODE 157,CONTROLLER:WATERCOIL,CONTROLLER WATER COIL 13,Sensor,1
 Non-Parent Node Connection,NODE 151,CONTROLLER:WATERCOIL,CONTROLLER WATER COIL 13,Actuator,1
 Non-Parent Node Connection,NODE 214,CONTROLLER:WATERCOIL,CONTROLLER WATER COIL 22,Sensor,1
 Non-Parent Node Connection,NODE 209,CONTROLLER:WATERCOIL,CONTROLLER WATER COIL 22,Actuator,1
 Non-Parent Node Connection,NODE 213,CONTROLLER:WATERCOIL,CONTROLLER WATER COIL 21,Sensor,1
 Non-Parent Node Connection,NODE 207,CONTROLLER:WATERCOIL,CONTROLLER WATER COIL 21,Actuator,1
 Non-Parent Node Connection,NODE 81,ZONEHVAC:BASEBOARD:CONVECTIVE:WATER,ZONE HVAC BASEBOARD CONVECTIVE WATER 1,Inlet,1
 Non-Parent Node Connection,NODE 82,ZONEHVAC:BASEBOARD:CONVECTIVE:WATER,ZONE HVAC BASEBOARD CONVECTIVE WATER 1,Outlet,1
 Non-Parent Node Connection,NODE 109,ZONEHVAC:BASEBOARD:CONVECTIVE:WATER,ZONE HVAC BASEBOARD CONVECTIVE WATER 3,Inlet,1
 Non-Parent Node Connection,NODE 110,ZONEHVAC:BASEBOARD:CONVECTIVE:WATER,ZONE HVAC BASEBOARD CONVECTIVE WATER 3,Outlet,1
 Non-Parent Node Connection,NODE 165,ZONEHVAC:BASEBOARD:CONVECTIVE:WATER,ZONE HVAC BASEBOARD CONVECTIVE WATER 9,Inlet,1
 Non-Parent Node Connection,NODE 166,ZONEHVAC:BASEBOARD:CONVECTIVE:WATER,ZONE HVAC BASEBOARD CONVECTIVE WATER 9,Outlet,1
 Non-Parent Node Connection,NODE 221,ZONEHVAC:BASEBOARD:CONVECTIVE:WATER,ZONE HVAC BASEBOARD CONVECTIVE WATER 15,Inlet,1
 Non-Parent Node Connection,NODE 222,ZONEHVAC:BASEBOARD:CONVECTIVE:WATER,ZONE HVAC BASEBOARD CONVECTIVE WATER 15,Outlet,1
 Non-Parent Node Connection,NODE 88,ZONEHVAC:BASEBOARD:CONVECTIVE:WATER,ZONE HVAC BASEBOARD CONVECTIVE WATER 2,Inlet,1
 Non-Parent Node Connection,NODE 89,ZONEHVAC:BASEBOARD:CONVECTIVE:WATER,ZONE HVAC BASEBOARD CONVECTIVE WATER 2,Outlet,1
 Non-Parent Node Connection,NODE 116,ZONEHVAC:BASEBOARD:CONVECTIVE:WATER,ZONE HVAC BASEBOARD CONVECTIVE WATER 4,Inlet,1
 Non-Parent Node Connection,NODE 117,ZONEHVAC:BASEBOARD:CONVECTIVE:WATER,ZONE HVAC BASEBOARD CONVECTIVE WATER 4,Outlet,1
 Non-Parent Node Connection,NODE 172,ZONEHVAC:BASEBOARD:CONVECTIVE:WATER,ZONE HVAC BASEBOARD CONVECTIVE WATER 10,Inlet,1
 Non-Parent Node Connection,NODE 173,ZONEHVAC:BASEBOARD:CONVECTIVE:WATER,ZONE HVAC BASEBOARD CONVECTIVE WATER 10,Outlet,1
 Non-Parent Node Connection,NODE 228,ZONEHVAC:BASEBOARD:CONVECTIVE:WATER,ZONE HVAC BASEBOARD CONVECTIVE WATER 16,Inlet,1
 Non-Parent Node Connection,NODE 229,ZONEHVAC:BASEBOARD:CONVECTIVE:WATER,ZONE HVAC BASEBOARD CONVECTIVE WATER 16,Outlet,1
 Non-Parent Node Connection,NODE 123,ZONEHVAC:BASEBOARD:CONVECTIVE:WATER,ZONE HVAC BASEBOARD CONVECTIVE WATER 5,Inlet,1
 Non-Parent Node Connection,NODE 124,ZONEHVAC:BASEBOARD:CONVECTIVE:WATER,ZONE HVAC BASEBOARD CONVECTIVE WATER 5,Outlet,1
 Non-Parent Node Connection,NODE 130,ZONEHVAC:BASEBOARD:CONVECTIVE:WATER,ZONE HVAC BASEBOARD CONVECTIVE WATER 6,Inlet,1
 Non-Parent Node Connection,NODE 131,ZONEHVAC:BASEBOARD:CONVECTIVE:WATER,ZONE HVAC BASEBOARD CONVECTIVE WATER 6,Outlet,1
 Non-Parent Node Connection,NODE 137,ZONEHVAC:BASEBOARD:CONVECTIVE:WATER,ZONE HVAC BASEBOARD CONVECTIVE WATER 7,Inlet,1
 Non-Parent Node Connection,NODE 138,ZONEHVAC:BASEBOARD:CONVECTIVE:WATER,ZONE HVAC BASEBOARD CONVECTIVE WATER 7,Outlet,1
 Non-Parent Node Connection,NODE 144,ZONEHVAC:BASEBOARD:CONVECTIVE:WATER,ZONE HVAC BASEBOARD CONVECTIVE WATER 8,Inlet,1
 Non-Parent Node Connection,NODE 145,ZONEHVAC:BASEBOARD:CONVECTIVE:WATER,ZONE HVAC BASEBOARD CONVECTIVE WATER 8,Outlet,1
 Non-Parent Node Connection,NODE 179,ZONEHVAC:BASEBOARD:CONVECTIVE:WATER,ZONE HVAC BASEBOARD CONVECTIVE WATER 11,Inlet,1
 Non-Parent Node Connection,NODE 180,ZONEHVAC:BASEBOARD:CONVECTIVE:WATER,ZONE HVAC BASEBOARD CONVECTIVE WATER 11,Outlet,1
 Non-Parent Node Connection,NODE 186,ZONEHVAC:BASEBOARD:CONVECTIVE:WATER,ZONE HVAC BASEBOARD CONVECTIVE WATER 12,Inlet,1
 Non-Parent Node Connection,NODE 187,ZONEHVAC:BASEBOARD:CONVECTIVE:WATER,ZONE HVAC BASEBOARD CONVECTIVE WATER 12,Outlet,1
 Non-Parent Node Connection,NODE 193,ZONEHVAC:BASEBOARD:CONVECTIVE:WATER,ZONE HVAC BASEBOARD CONVECTIVE WATER 13,Inlet,1
 Non-Parent Node Connection,NODE 194,ZONEHVAC:BASEBOARD:CONVECTIVE:WATER,ZONE HVAC BASEBOARD CONVECTIVE WATER 13,Outlet,1
 Non-Parent Node Connection,NODE 200,ZONEHVAC:BASEBOARD:CONVECTIVE:WATER,ZONE HVAC BASEBOARD CONVECTIVE WATER 14,Inlet,1
 Non-Parent Node Connection,NODE 201,ZONEHVAC:BASEBOARD:CONVECTIVE:WATER,ZONE HVAC BASEBOARD CONVECTIVE WATER 14,Outlet,1
 Non-Parent Node Connection,NODE 235,ZONEHVAC:BASEBOARD:CONVECTIVE:WATER,ZONE HVAC BASEBOARD CONVECTIVE WATER 17,Inlet,1
 Non-Parent Node Connection,NODE 236,ZONEHVAC:BASEBOARD:CONVECTIVE:WATER,ZONE HVAC BASEBOARD CONVECTIVE WATER 17,Outlet,1
 Non-Parent Node Connection,NODE 242,ZONEHVAC:BASEBOARD:CONVECTIVE:WATER,ZONE HVAC BASEBOARD CONVECTIVE WATER 18,Inlet,1
 Non-Parent Node Connection,NODE 243,ZONEHVAC:BASEBOARD:CONVECTIVE:WATER,ZONE HVAC BASEBOARD CONVECTIVE WATER 18,Outlet,1
 Non-Parent Node Connection,NODE 249,ZONEHVAC:BASEBOARD:CONVECTIVE:WATER,ZONE HVAC BASEBOARD CONVECTIVE WATER 19,Inlet,1
 Non-Parent Node Connection,NODE 250,ZONEHVAC:BASEBOARD:CONVECTIVE:WATER,ZONE HVAC BASEBOARD CONVECTIVE WATER 19,Outlet,1
 Non-Parent Node Connection,NODE 256,ZONEHVAC:BASEBOARD:CONVECTIVE:WATER,ZONE HVAC BASEBOARD CONVECTIVE WATER 20,Inlet,1
 Non-Parent Node Connection,NODE 257,ZONEHVAC:BASEBOARD:CONVECTIVE:WATER,ZONE HVAC BASEBOARD CONVECTIVE WATER 20,Outlet,1
 Non-Parent Node Connection,NODE 67,AIRLOOPHVAC:ZONEMIXER,AIR LOOP HVAC ZONE MIXER 1,Outlet,1
 Non-Parent Node Connection,NODE 79,AIRLOOPHVAC:ZONEMIXER,AIR LOOP HVAC ZONE MIXER 1,Inlet,1
 Non-Parent Node Connection,NODE 86,AIRLOOPHVAC:ZONEMIXER,AIR LOOP HVAC ZONE MIXER 1,Inlet,1
 Non-Parent Node Connection,NODE 93,AIRLOOPHVAC:ZONEMIXER,AIR LOOP HVAC ZONE MIXER 2,Outlet,1
 Non-Parent Node Connection,NODE 107,AIRLOOPHVAC:ZONEMIXER,AIR LOOP HVAC ZONE MIXER 2,Inlet,1
 Non-Parent Node Connection,NODE 114,AIRLOOPHVAC:ZONEMIXER,AIR LOOP HVAC ZONE MIXER 2,Inlet,1
 Non-Parent Node Connection,NODE 121,AIRLOOPHVAC:ZONEMIXER,AIR LOOP HVAC ZONE MIXER 2,Inlet,1
 Non-Parent Node Connection,NODE 128,AIRLOOPHVAC:ZONEMIXER,AIR LOOP HVAC ZONE MIXER 2,Inlet,1
 Non-Parent Node Connection,NODE 135,AIRLOOPHVAC:ZONEMIXER,AIR LOOP HVAC ZONE MIXER 2,Inlet,1
 Non-Parent Node Connection,NODE 142,AIRLOOPHVAC:ZONEMIXER,AIR LOOP HVAC ZONE MIXER 2,Inlet,1
 Non-Parent Node Connection,NODE 149,AIRLOOPHVAC:ZONEMIXER,AIR LOOP HVAC ZONE MIXER 3,Outlet,1
 Non-Parent Node Connection,NODE 163,AIRLOOPHVAC:ZONEMIXER,AIR LOOP HVAC ZONE MIXER 3,Inlet,1
 Non-Parent Node Connection,NODE 170,AIRLOOPHVAC:ZONEMIXER,AIR LOOP HVAC ZONE MIXER 3,Inlet,1
 Non-Parent Node Connection,NODE 177,AIRLOOPHVAC:ZONEMIXER,AIR LOOP HVAC ZONE MIXER 3,Inlet,1
 Non-Parent Node Connection,NODE 184,AIRLOOPHVAC:ZONEMIXER,AIR LOOP HVAC ZONE MIXER 3,Inlet,1
 Non-Parent Node Connection,NODE 191,AIRLOOPHVAC:ZONEMIXER,AIR LOOP HVAC ZONE MIXER 3,Inlet,1
 Non-Parent Node Connection,NODE 198,AIRLOOPHVAC:ZONEMIXER,AIR LOOP HVAC ZONE MIXER 3,Inlet,1
 Non-Parent Node Connection,NODE 205,AIRLOOPHVAC:ZONEMIXER,AIR LOOP HVAC ZONE MIXER 4,Outlet,1
 Non-Parent Node Connection,NODE 219,AIRLOOPHVAC:ZONEMIXER,AIR LOOP HVAC ZONE MIXER 4,Inlet,1
 Non-Parent Node Connection,NODE 226,AIRLOOPHVAC:ZONEMIXER,AIR LOOP HVAC ZONE MIXER 4,Inlet,1
 Non-Parent Node Connection,NODE 233,AIRLOOPHVAC:ZONEMIXER,AIR LOOP HVAC ZONE MIXER 4,Inlet,1
 Non-Parent Node Connection,NODE 240,AIRLOOPHVAC:ZONEMIXER,AIR LOOP HVAC ZONE MIXER 4,Inlet,1
 Non-Parent Node Connection,NODE 247,AIRLOOPHVAC:ZONEMIXER,AIR LOOP HVAC ZONE MIXER 4,Inlet,1
 Non-Parent Node Connection,NODE 254,AIRLOOPHVAC:ZONEMIXER,AIR LOOP HVAC ZONE MIXER 4,Inlet,1
 Non-Parent Node Connection,NODE 75,OUTDOORAIR:MIXER,AIR LOOP HVAC OUTDOOR AIR SYSTEM 1 OUTDOOR AIR MIXER,Outlet,1
 Non-Parent Node Connection,NODE 71,OUTDOORAIR:MIXER,AIR LOOP HVAC OUTDOOR AIR SYSTEM 1 OUTDOOR AIR MIXER,Inlet,1
 Non-Parent Node Connection,NODE 72,OUTDOORAIR:MIXER,AIR LOOP HVAC OUTDOOR AIR SYSTEM 1 OUTDOOR AIR MIXER,ReliefAir,1
 Non-Parent Node Connection,NODE 76,OUTDOORAIR:MIXER,AIR LOOP HVAC OUTDOOR AIR SYSTEM 1 OUTDOOR AIR MIXER,Inlet,1
 Non-Parent Node Connection,NODE 103,OUTDOORAIR:MIXER,AIR LOOP HVAC OUTDOOR AIR SYSTEM 2 OUTDOOR AIR MIXER,Outlet,1
 Non-Parent Node Connection,NODE 99,OUTDOORAIR:MIXER,AIR LOOP HVAC OUTDOOR AIR SYSTEM 2 OUTDOOR AIR MIXER,Inlet,1
 Non-Parent Node Connection,NODE 100,OUTDOORAIR:MIXER,AIR LOOP HVAC OUTDOOR AIR SYSTEM 2 OUTDOOR AIR MIXER,ReliefAir,1
 Non-Parent Node Connection,NODE 104,OUTDOORAIR:MIXER,AIR LOOP HVAC OUTDOOR AIR SYSTEM 2 OUTDOOR AIR MIXER,Inlet,1
 Non-Parent Node Connection,NODE 159,OUTDOORAIR:MIXER,AIR LOOP HVAC OUTDOOR AIR SYSTEM 3 OUTDOOR AIR MIXER,Outlet,1
 Non-Parent Node Connection,NODE 155,OUTDOORAIR:MIXER,AIR LOOP HVAC OUTDOOR AIR SYSTEM 3 OUTDOOR AIR MIXER,Inlet,1
 Non-Parent Node Connection,NODE 156,OUTDOORAIR:MIXER,AIR LOOP HVAC OUTDOOR AIR SYSTEM 3 OUTDOOR AIR MIXER,ReliefAir,1
 Non-Parent Node Connection,NODE 160,OUTDOORAIR:MIXER,AIR LOOP HVAC OUTDOOR AIR SYSTEM 3 OUTDOOR AIR MIXER,Inlet,1
 Non-Parent Node Connection,NODE 215,OUTDOORAIR:MIXER,AIR LOOP HVAC OUTDOOR AIR SYSTEM 4 OUTDOOR AIR MIXER,Outlet,1
 Non-Parent Node Connection,NODE 211,OUTDOORAIR:MIXER,AIR LOOP HVAC OUTDOOR AIR SYSTEM 4 OUTDOOR AIR MIXER,Inlet,1
 Non-Parent Node Connection,NODE 212,OUTDOORAIR:MIXER,AIR LOOP HVAC OUTDOOR AIR SYSTEM 4 OUTDOOR AIR MIXER,ReliefAir,1
 Non-Parent Node Connection,NODE 216,OUTDOORAIR:MIXER,AIR LOOP HVAC OUTDOOR AIR SYSTEM 4 OUTDOOR AIR MIXER,Inlet,1
 Non-Parent Node Connection,NODE 64,FAN:VARIABLEVOLUME,SYS6 RETURN FAN,Inlet,1
 Non-Parent Node Connection,NODE 76,FAN:VARIABLEVOLUME,SYS6 RETURN FAN,Outlet,1
 Non-Parent Node Connection,NODE 73,FAN:VARIABLEVOLUME,SYS6 SUPPLY FAN,Inlet,1
 Non-Parent Node Connection,NODE 65,FAN:VARIABLEVOLUME,SYS6 SUPPLY FAN,Outlet,1
 Non-Parent Node Connection,NODE 90,FAN:VARIABLEVOLUME,SYS6 RETURN FAN 1,Inlet,1
 Non-Parent Node Connection,NODE 104,FAN:VARIABLEVOLUME,SYS6 RETURN FAN 1,Outlet,1
 Non-Parent Node Connection,NODE 101,FAN:VARIABLEVOLUME,SYS6 SUPPLY FAN 1,Inlet,1
 Non-Parent Node Connection,NODE 91,FAN:VARIABLEVOLUME,SYS6 SUPPLY FAN 1,Outlet,1
 Non-Parent Node Connection,NODE 146,FAN:VARIABLEVOLUME,SYS6 RETURN FAN 2,Inlet,1
 Non-Parent Node Connection,NODE 160,FAN:VARIABLEVOLUME,SYS6 RETURN FAN 2,Outlet,1
 Non-Parent Node Connection,NODE 157,FAN:VARIABLEVOLUME,SYS6 SUPPLY FAN 2,Inlet,1
 Non-Parent Node Connection,NODE 147,FAN:VARIABLEVOLUME,SYS6 SUPPLY FAN 2,Outlet,1
 Non-Parent Node Connection,NODE 202,FAN:VARIABLEVOLUME,SYS6 RETURN FAN 3,Inlet,1
 Non-Parent Node Connection,NODE 216,FAN:VARIABLEVOLUME,SYS6 RETURN FAN 3,Outlet,1
 Non-Parent Node Connection,NODE 213,FAN:VARIABLEVOLUME,SYS6 SUPPLY FAN 3,Inlet,1
 Non-Parent Node Connection,NODE 203,FAN:VARIABLEVOLUME,SYS6 SUPPLY FAN 3,Outlet,1
 Non-Parent Node Connection,NODE 75,CONTROLLER:OUTDOORAIR,CONTROLLER OUTDOOR AIR 1,Sensor,1
 Non-Parent Node Connection,NODE 71,CONTROLLER:OUTDOORAIR,CONTROLLER OUTDOOR AIR 1,Actuator,1
 Non-Parent Node Connection,NODE 72,CONTROLLER:OUTDOORAIR,CONTROLLER OUTDOOR AIR 1,Actuator,1
 Non-Parent Node Connection,NODE 76,CONTROLLER:OUTDOORAIR,CONTROLLER OUTDOOR AIR 1,Sensor,1
 Non-Parent Node Connection,NODE 103,CONTROLLER:OUTDOORAIR,CONTROLLER OUTDOOR AIR 2,Sensor,1
 Non-Parent Node Connection,NODE 99,CONTROLLER:OUTDOORAIR,CONTROLLER OUTDOOR AIR 2,Actuator,1
 Non-Parent Node Connection,NODE 100,CONTROLLER:OUTDOORAIR,CONTROLLER OUTDOOR AIR 2,Actuator,1
 Non-Parent Node Connection,NODE 104,CONTROLLER:OUTDOORAIR,CONTROLLER OUTDOOR AIR 2,Sensor,1
 Non-Parent Node Connection,NODE 159,CONTROLLER:OUTDOORAIR,CONTROLLER OUTDOOR AIR 3,Sensor,1
 Non-Parent Node Connection,NODE 155,CONTROLLER:OUTDOORAIR,CONTROLLER OUTDOOR AIR 3,Actuator,1
 Non-Parent Node Connection,NODE 156,CONTROLLER:OUTDOORAIR,CONTROLLER OUTDOOR AIR 3,Actuator,1
 Non-Parent Node Connection,NODE 160,CONTROLLER:OUTDOORAIR,CONTROLLER OUTDOOR AIR 3,Sensor,1
 Non-Parent Node Connection,NODE 215,CONTROLLER:OUTDOORAIR,CONTROLLER OUTDOOR AIR 4,Sensor,1
 Non-Parent Node Connection,NODE 211,CONTROLLER:OUTDOORAIR,CONTROLLER OUTDOOR AIR 4,Actuator,1
 Non-Parent Node Connection,NODE 212,CONTROLLER:OUTDOORAIR,CONTROLLER OUTDOOR AIR 4,Actuator,1
 Non-Parent Node Connection,NODE 216,CONTROLLER:OUTDOORAIR,CONTROLLER OUTDOOR AIR 4,Sensor,1
 Non-Parent Node Connection,NODE 39,CHILLER:ELECTRIC:EIR,PRIMARY CHILLER WATERCOOLED SCROLL,Inlet,1
 Non-Parent Node Connection,NODE 44,CHILLER:ELECTRIC:EIR,PRIMARY CHILLER WATERCOOLED SCROLL,Outlet,1
 Non-Parent Node Connection,NODE 55,CHILLER:ELECTRIC:EIR,PRIMARY CHILLER WATERCOOLED SCROLL,Inlet,2
 Non-Parent Node Connection,NODE 61,CHILLER:ELECTRIC:EIR,PRIMARY CHILLER WATERCOOLED SCROLL,Outlet,2
 Non-Parent Node Connection,NODE 45,CHILLER:ELECTRIC:EIR,SECONDARY CHILLER WATERCOOLED SCROLL,Inlet,1
 Non-Parent Node Connection,NODE 46,CHILLER:ELECTRIC:EIR,SECONDARY CHILLER WATERCOOLED SCROLL,Outlet,1
 Non-Parent Node Connection,NODE 62,CHILLER:ELECTRIC:EIR,SECONDARY CHILLER WATERCOOLED SCROLL,Inlet,2
 Non-Parent Node Connection,NODE 63,CHILLER:ELECTRIC:EIR,SECONDARY CHILLER WATERCOOLED SCROLL,Outlet,2
 Non-Parent Node Connection,NODE 52,COOLINGTOWER:SINGLESPEED,COOLING TOWER SINGLE SPEED 1,Inlet,1
 Non-Parent Node Connection,NODE 57,COOLINGTOWER:SINGLESPEED,COOLING TOWER SINGLE SPEED 1,Outlet,1
 Non-Parent Node Connection,NODE 26,BOILER:HOTWATER,PRIMARY BOILER,Inlet,1
 Non-Parent Node Connection,NODE 31,BOILER:HOTWATER,PRIMARY BOILER,Outlet,1
 Non-Parent Node Connection,NODE 32,BOILER:HOTWATER,SECONDARY BOILER,Inlet,1
 Non-Parent Node Connection,NODE 33,BOILER:HOTWATER,SECONDARY BOILER,Outlet,1
 Non-Parent Node Connection,NODE 24,PUMP:VARIABLESPEED,PUMP VARIABLE SPEED 1,Inlet,1
 Non-Parent Node Connection,NODE 30,PUMP:VARIABLESPEED,PUMP VARIABLE SPEED 1,Outlet,1
 Non-Parent Node Connection,NODE 37,PUMP:CONSTANTSPEED,PUMP CONSTANT SPEED 1,Inlet,1
 Non-Parent Node Connection,NODE 43,PUMP:CONSTANTSPEED,PUMP CONSTANT SPEED 1,Outlet,1
 Non-Parent Node Connection,NODE 50,PUMP:CONSTANTSPEED,PUMP CONSTANT SPEED 2,Inlet,1
 Non-Parent Node Connection,NODE 56,PUMP:CONSTANTSPEED,PUMP CONSTANT SPEED 2,Outlet,1
 Non-Parent Node Connection,NODE 258,PUMP:CONSTANTSPEED,SERVICE WATER LOOP PUMP,Inlet,1
 Non-Parent Node Connection,NODE 264,PUMP:CONSTANTSPEED,SERVICE WATER LOOP PUMP,Outlet,1
