Program Version,EnergyPlus, Version 8.9.0-eba93e8e1b, YMD=2018.09.14 14:10
! <Version>, Version ID
 Version, 8.9
! <Timesteps per Hour>, #TimeSteps, Minutes per TimeStep {minutes}
 Timesteps per Hour,  6, 10
! <System Convergence Limits>, Minimum System TimeStep {minutes}, Max HVAC Iterations, Minimum Plant Iterations, Maximum Plant Iterations
 System Convergence Limits, 1, 20, 2, 8
! <Simulation Control>, Do Zone Sizing, Do System Sizing, Do Plant Sizing, Do Design Days, Do Weather Simulation, Do HVAC Sizing Simulation
 Simulation Control, Yes, Yes, Yes, Yes, No, No
! <Output Reporting Tolerances>, Tolerance for Time Heating Setpoint Not Met, Tolerance for Zone Cooling Setpoint Not Met Time
 Output Reporting Tolerances, 1.000, 1.000, 
! <Site:GroundTemperature:BuildingSurface>,Jan{C},Feb{C},Mar{C},Apr{C},May{C},Jun{C},Jul{C},Aug{C},Sep{C},Oct{C},Nov{C},Dec{C}
 Site:GroundTemperature:BuildingSurface,  19.53,  19.50,  19.54,  19.60,  20.00,  21.64,  22.23,  22.38,  21.45,  20.12,  19.80,  19.63
! <Site:GroundTemperature:FCfactorMethod>,Jan{C},Feb{C},Mar{C},Apr{C},May{C},Jun{C},Jul{C},Aug{C},Sep{C},Oct{C},Nov{C},Dec{C}
 Site:GroundTemperature:FCfactorMethod,   4.64,   4.08,   5.08,   6.66,  10.79,  13.98,  16.13,  16.78,  15.67,  13.19,   9.89,   6.82
! <Site:GroundTemperature:Shallow>,Jan{C},Feb{C},Mar{C},Apr{C},May{C},Jun{C},Jul{C},Aug{C},Sep{C},Oct{C},Nov{C},Dec{C}
 Site:GroundTemperature:Shallow,  13.00,  13.00,  13.00,  13.00,  13.00,  13.00,  13.00,  13.00,  13.00,  13.00,  13.00,  13.00
! <Site:GroundTemperature:Deep>,Jan{C},Feb{C},Mar{C},Apr{C},May{C},Jun{C},Jul{C},Aug{C},Sep{C},Oct{C},Nov{C},Dec{C}
 Site:GroundTemperature:Deep,  16.00,  16.00,  16.00,  16.00,  16.00,  16.00,  16.00,  16.00,  16.00,  16.00,  16.00,  16.00
! <Site:GroundReflectance>,Jan{dimensionless},Feb{dimensionless},Mar{dimensionless},Apr{dimensionless},May{dimensionless},Jun{dimensionless},Jul{dimensionless},Aug{dimensionless},Sep{dimensionless},Oct{dimensionless},Nov{dimensionless},Dec{dimensionless}
 Site:GroundReflectance,  0.20,  0.20,  0.20,  0.20,  0.20,  0.20,  0.20,  0.20,  0.20,  0.20,  0.20,  0.20
! <Site:GroundReflectance:SnowModifier>, Normal, Daylighting {dimensionless}
 Site:GroundReflectance:SnowModifier,   1.000,   1.000
! <Site:GroundReflectance:Snow>,Jan{dimensionless},Feb{dimensionless},Mar{dimensionless},Apr{dimensionless},May{dimensionless},Jun{dimensionless},Jul{dimensionless},Aug{dimensionless},Sep{dimensionless},Oct{dimensionless},Nov{dimensionless},Dec{dimensionless}
 Site:GroundReflectance:Snow,  0.20,  0.20,  0.20,  0.20,  0.20,  0.20,  0.20,  0.20,  0.20,  0.20,  0.20,  0.20
! <Site:GroundReflectance:Snow:Daylighting>,Jan{dimensionless},Feb{dimensionless},Mar{dimensionless},Apr{dimensionless},May{dimensionless},Jun{dimensionless},Jul{dimensionless},Aug{dimensionless},Sep{dimensionless},Oct{dimensionless},Nov{dimensionless},Dec{dimensionless}
 Site:GroundReflectance:Snow:Daylighting,  0.20,  0.20,  0.20,  0.20,  0.20,  0.20,  0.20,  0.20,  0.20,  0.20,  0.20,  0.20
! <Environment:Weather Station>,Wind Sensor Height Above Ground {m},Wind Speed Profile Exponent {},Wind Speed Profile Boundary Layer Thickness {m},Air Temperature Sensor Height Above Ground {m},Wind Speed Modifier Coefficient-Internal,Temperature Modifier Coefficient-Internal
Environment:Weather Station,10.000,0.140,270.000,1.500,1.586,9.750E-003
! <Site:Location>, Location Name, Latitude {N+/S- Deg}, Longitude {E+/W- Deg},  Time Zone Number {GMT+/-}, Elevation {m},  Standard Pressure at Elevation {Pa}, Standard RhoAir at Elevation
Site:Location,Vancouver Intl AP BC CAN CWEC2016 WMO#=718920,49.20,-123.18,-8.00,4.30,101273,1.2037
! <Building Information>, Building Name,North Axis {deg},Terrain,  Loads Convergence Tolerance Value,Temperature Convergence Tolerance Value,  Solar Distribution,Maximum Number of Warmup Days,Minimum Number of Warmup Days
 Building Information,LargeOffice-CAN_BC_Vancouver.Intl.AP.718920_CWEC2016.epw created: 2018-09-14 14:09:40 +0000,0.000,Suburbs,4.00000E-002,0.20000,FullInteriorAndExterior,25,6
! <Inside Convection Algorithm>, Algorithm {Simple | TARP | CeilingDiffuser | AdaptiveConvectionAlgorithm}
Inside Convection Algorithm,TARP
! <Outside Convection Algorithm>, Algorithm {SimpleCombined | TARP | MoWitt | DOE-2 | AdaptiveConvectionAlgorithm}
Outside Convection Algorithm,TARP
! <Sky Radiance Distribution>, Value {Anisotropic}
Sky Radiance Distribution,Anisotropic
! <Zone Air Solution Algorithm>, Value {ThirdOrderBackwardDifference | AnalyticalSolution | EulerMethod}
 Zone Air Solution Algorithm, ThirdOrderBackwardDifference
! <Zone Air Carbon Dioxide Balance Simulation>, Simulation {Yes/No}, Carbon Dioxide Concentration
 Zone Air Carbon Dioxide Balance Simulation, No,N/A
! <Zone Air Generic Contaminant Balance Simulation>, Simulation {Yes/No}, Generic Contaminant Concentration
 Zone Air Generic Contaminant Balance Simulation, No,N/A
! <Zone Air Mass Flow Balance Simulation>, Enforce Mass Balance, Adjust Zone Mixing, Adjust Zone Infiltration {AddInfiltration | AdjustInfiltration | None}, Infiltration Zones {MixingSourceZonesOnly | AllZones}
 Zone Air Mass Flow Balance Simulation, No,N/A,N/A,N/A
! <HVACSystemRootFindingAlgorithm>, Value {RegulaFalsi | Bisection | BisectionThenRegulaFalsi | RegulaFalsiThenBisection}
 HVACSystemRootFindingAlgorithm, RegulaFalsi
! <Environment:Site Atmospheric Variation>,Wind Speed Profile Exponent {},Wind Speed Profile Boundary Layer Thickness {m},Air Temperature Gradient Coefficient {K/m}
Environment:Site Atmospheric Variation,0.220,370.000,6.500000E-003
! <Surface Geometry>,Starting Corner,Vertex Input Direction,Coordinate System,Daylight Reference Point Coordinate System,Rectangular (Simple) Surface Coordinate System
 Surface Geometry,UpperLeftCorner,Counterclockwise,RelativeCoordinateSystem,RelativeCoordinateSystem,RelativeToZoneOrigin
! <Surface Heat Transfer Algorithm>, Value {CTF - ConductionTransferFunction | EMPD - MoisturePenetrationDepthConductionTransferFunction | CondFD - ConductionFiniteDifference | HAMT - CombinedHeatAndMoistureFiniteElement} - Description,Inside Surface Max Temperature Limit{C}, Surface Convection Coefficient Lower Limit {W/m2-K}, Surface Convection Coefficient Upper Limit {W/m2-K}
Surface Heat Transfer Algorithm, CTF - ConductionTransferFunction,200,0.10,1000.0
! <Shading Summary>, Number of Fixed Detached Shades, Number of Building Detached Shades, Number of Attached Shades
 Shading Summary,0,0,0
! <Zone Summary>, Number of Zones, Number of Zone Surfaces, Number of SubSurfaces
 Zone Summary,23,181,12
! <Zone Information>,Zone Name,North Axis {deg},Origin X-Coordinate {m},Origin Y-Coordinate {m},Origin Z-Coordinate {m},Centroid X-Coordinate {m},Centroid Y-Coordinate {m},Centroid Z-Coordinate {m},Type,Zone Multiplier,Zone List Multiplier,Minimum X {m},Maximum X {m},Minimum Y {m},Maximum Y {m},Minimum Z {m},Maximum Z {m},Ceiling Height {m},Volume {m3},Zone Inside Convection Algorithm {Simple-Detailed-CeilingDiffuser-TrombeWall},Zone Outside Convection Algorithm {Simple-Detailed-Tarp-MoWitt-DOE-2-BLAST}, Floor Area {m2},Exterior Gross Wall Area {m2},Exterior Net Wall Area {m2},Exterior Window Area {m2}, Number of Surfaces, Number of SubSurfaces, Number of Shading SubSurfaces,  Part of Total Building Area
 Zone Information, SP-BASEMENT SYS-6 FLR-1 SCH-A HPLCMT-NORTH ZN,0.0,16.08,0.00,-2.44,44.59,24.37,-1.22,1,1,1,16.08,73.11,0.00,48.74,-2.44,0.00,2.44,6779.02,TARP,TARP,2779.43,0.00,0.00,0.00,9,0,0,Yes
 Zone Information, SP-CORE_BOTTOM SYS-6 FLR-2 SCH-A HPLCMT-CORE ZN,0.0,5.49,4.57,0.00,37.01,24.37,1.37,1,1,1,5.49,68.53,4.57,44.17,0.00,2.74,2.74,6849.35,TARP,TARP,2496.12,0.00,0.00,0.00,7,0,0,Yes
 Zone Information, SP-CORE_MID SYS-6 FLR-3 SCH-A HPLCMT-CORE ZN,0.0,5.49,4.57,19.82,37.01,24.37,21.19,1,10,1,5.49,68.53,4.57,44.17,19.82,22.56,2.74,6849.35,TARP,TARP,2496.12,0.00,0.00,0.00,6,0,0,Yes
 Zone Information, SP-CORE_TOP SYS-6 FLR-4 SCH-A HPLCMT-CORE ZN,0.0,5.49,4.57,43.60,37.01,24.37,44.97,1,1,1,5.49,68.53,4.57,44.17,43.60,46.34,2.74,6849.35,TARP,TARP,2496.12,0.00,0.00,0.00,6,0,0,Yes
 Zone Information, SP-DATACENTER_BASEMENT_ZN_6 SYS-6 FLR-1 SCH-A HPLCMT-WEST ZN,0.0,0.00,0.00,-2.44,8.04,24.37,-1.22,1,1,1,0.00,16.08,0.00,48.74,-2.44,0.00,2.44,1911.37,TARP,TARP,783.68,0.00,0.00,0.00,10,0,0,Yes
 Zone Information, SP-DATACENTER_BOT_ZN_6 SYS-6 FLR-2 SCH-A HPLCMT-CORE ZN,0.0,4.57,4.57,0.00,5.03,24.37,1.37,1,1,1,4.57,5.49,4.57,44.17,0.00,2.74,2.74,99.34,TARP,TARP,36.20,0.00,0.00,0.00,6,0,0,Yes
 Zone Information, SP-DATACENTER_MID_ZN_6 SYS-6 FLR-3 SCH-A HPLCMT-CORE ZN,0.0,4.57,4.57,19.82,5.03,24.37,21.19,1,10,1,4.57,5.49,4.57,44.17,19.82,22.56,2.74,99.34,TARP,TARP,36.20,0.00,0.00,0.00,6,0,0,Yes
 Zone Information, SP-DATACENTER_TOP_ZN_6 SYS-6 FLR-4 SCH-A HPLCMT-CORE ZN,0.0,4.57,4.57,43.60,5.03,24.37,44.97,1,1,1,4.57,5.49,4.57,44.17,43.60,46.34,2.74,99.34,TARP,TARP,36.20,0.00,0.00,0.00,6,0,0,Yes
 Zone Information, SP-GROUNDFLOOR_PLENUM SYS-0 FLR-2 SCH-- UNDEFINED - HPLCMT-NORTH ZN,0.0,0.00,0.00,2.74,36.55,24.37,3.35,1,1,1,0.00,73.11,0.00,48.74,2.74,3.96,1.22,4344.14,TARP,TARP,3563.11,297.11,297.11,0.00,11,0,0,No
 Zone Information, SP-MIDFLOOR_PLENUM SYS-0 FLR-3 SCH-- UNDEFINED - HPLCMT-NORTH ZN,0.0,0.00,0.00,22.56,36.55,24.37,23.17,1,10,1,0.00,73.11,0.00,48.74,22.56,23.78,1.22,4344.14,TARP,TARP,3563.11,297.11,297.11,0.00,11,0,0,No
 Zone Information, SP-PERIMETER_BOT_ZN_1 SYS-6 FLR-2 SCH-A HPLCMT-SOUTH ZN,0.0,0.00,0.00,0.00,36.55,2.20,1.37,1,1,1,0.00,73.11,0.00,4.57,0.00,2.74,2.74,860.02,TARP,TARP,313.42,200.61,84.71,115.90,8,1,0,Yes
 Zone Information, SP-PERIMETER_BOT_ZN_2 SYS-6 FLR-2 SCH-A HPLCMT-EAST ZN,0.0,68.53,0.00,0.00,70.95,24.37,1.37,1,1,1,68.53,73.11,0.00,48.74,0.00,2.74,2.74,554.22,TARP,TARP,201.98,133.74,56.47,77.26,6,1,0,Yes
 Zone Information, SP-PERIMETER_BOT_ZN_3 SYS-6 FLR-2 SCH-A HPLCMT-NORTH ZN,0.0,0.00,44.17,0.00,36.55,46.54,1.37,1,1,1,0.00,73.11,44.17,48.74,0.00,2.74,2.74,860.00,TARP,TARP,313.41,200.61,84.71,115.90,8,1,0,Yes
 Zone Information, SP-PERIMETER_BOT_ZN_4 SYS-6 FLR-2 SCH-A HPLCMT-WEST ZN,0.0,0.00,0.00,0.00,2.16,24.37,1.37,1,1,1,0.00,4.57,0.00,48.74,0.00,2.74,2.74,554.22,TARP,TARP,201.98,133.74,56.47,77.26,6,1,0,Yes
 Zone Information, SP-PERIMETER_MID_ZN_1 SYS-6 FLR-3 SCH-A HPLCMT-SOUTH ZN,0.0,0.00,0.00,19.82,36.55,2.20,21.19,1,10,1,0.00,73.11,0.00,4.57,19.82,22.56,2.74,860.02,TARP,TARP,313.42,200.61,84.71,115.90,7,1,0,Yes
 Zone Information, SP-PERIMETER_MID_ZN_2 SYS-6 FLR-3 SCH-A HPLCMT-EAST ZN,0.0,68.53,0.00,19.82,70.95,24.37,21.19,1,10,1,68.53,73.11,0.00,48.74,19.82,22.56,2.74,554.22,TARP,TARP,201.98,133.74,56.47,77.26,6,1,0,Yes
 Zone Information, SP-PERIMETER_MID_ZN_3 SYS-6 FLR-3 SCH-A HPLCMT-NORTH ZN,0.0,0.00,44.17,19.82,36.55,46.54,21.19,1,10,1,-2.55E-016,73.11,44.17,48.74,19.82,22.56,2.74,860.00,TARP,TARP,313.41,200.61,84.71,115.90,7,1,0,Yes
 Zone Information, SP-PERIMETER_MID_ZN_4 SYS-6 FLR-3 SCH-A HPLCMT-WEST ZN,0.0,0.00,0.00,19.82,2.16,24.37,21.19,1,10,1,0.00,4.57,0.00,48.74,19.82,22.56,2.74,554.22,TARP,TARP,201.98,133.74,56.47,77.26,6,1,0,Yes
 Zone Information, SP-PERIMETER_TOP_ZN_1 SYS-6 FLR-4 SCH-A HPLCMT-SOUTH ZN,0.0,-7.22E-016,0.00,43.60,36.55,2.20,44.97,1,1,1,-7.22E-016,73.11,0.00,4.57,43.60,46.34,2.74,860.02,TARP,TARP,313.42,200.61,84.71,115.90,7,1,0,Yes
 Zone Information, SP-PERIMETER_TOP_ZN_2 SYS-6 FLR-4 SCH-A HPLCMT-EAST ZN,0.0,68.53,0.00,43.60,70.95,24.37,44.97,1,1,1,68.53,73.11,0.00,48.74,43.60,46.34,2.74,554.22,TARP,TARP,201.98,133.74,56.47,77.26,6,1,0,Yes
 Zone Information, SP-PERIMETER_TOP_ZN_3 SYS-6 FLR-4 SCH-A HPLCMT-NORTH ZN,0.0,-7.22E-016,44.17,43.60,36.55,46.54,44.97,1,1,1,-9.77E-016,73.11,44.17,48.74,43.60,46.34,2.74,860.00,TARP,TARP,313.41,200.61,84.71,115.90,7,1,0,Yes
 Zone Information, SP-PERIMETER_TOP_ZN_4 SYS-6 FLR-4 SCH-A HPLCMT-WEST ZN,0.0,-7.22E-016,0.00,43.60,2.16,24.37,44.97,1,1,1,-7.22E-016,4.57,0.00,48.74,43.60,46.34,2.74,554.22,TARP,TARP,201.98,133.74,56.47,77.26,6,1,0,Yes
 Zone Information, SP-TOPFLOOR_PLENUM SYS-0 FLR-4 SCH-- UNDEFINED - HPLCMT-NORTH ZN,0.0,-7.22E-016,0.00,46.34,36.55,24.37,46.95,1,1,1,-7.22E-016,73.11,0.00,48.74,46.34,47.56,1.22,4344.14,TARP,TARP,3563.11,297.11,297.11,0.00,11,0,0,No
! <Zone Internal Gains Nominal>,Zone Name, Floor Area {m2},# Occupants,Area per Occupant {m2/person},Occupant per Area {person/m2},Interior Lighting {W/m2},Electric Load {W/m2},Gas Load {W/m2},Other Load {W/m2},Hot Water Eq {W/m2},Steam Equipment {W/m2},Sum Loads per Area {W/m2},Outdoor Controlled Baseboard Heat
 Zone Internal Gains Nominal, SP-BASEMENT SYS-6 FLR-1 SCH-A HPLCMT-NORTH ZN,2779.43,13.8,201.963,4.951E-003,13.300,1.000,0.000,0.000,0.000,0.000,14.300,No
 Zone Internal Gains Nominal, SP-CORE_BOTTOM SYS-6 FLR-2 SCH-A HPLCMT-CORE ZN,2496.12,124.9,19.979,5.005E-002,11.000,7.500,0.000,0.000,0.000,0.000,18.500,No
 Zone Internal Gains Nominal, SP-CORE_MID SYS-6 FLR-3 SCH-A HPLCMT-CORE ZN,2496.12,124.9,19.979,5.005E-002,11.000,7.500,0.000,0.000,0.000,0.000,18.500,No
 Zone Internal Gains Nominal, SP-CORE_TOP SYS-6 FLR-4 SCH-A HPLCMT-CORE ZN,2496.12,124.9,19.979,5.005E-002,11.000,7.500,0.000,0.000,0.000,0.000,18.500,No
 Zone Internal Gains Nominal, SP-DATACENTER_BASEMENT_ZN_6 SYS-6 FLR-1 SCH-A HPLCMT-WEST ZN,783.68,39.2,19.979,5.005E-002,11.000,7.500,0.000,0.000,0.000,0.000,18.500,No
 Zone Internal Gains Nominal, SP-DATACENTER_BOT_ZN_6 SYS-6 FLR-2 SCH-A HPLCMT-CORE ZN,36.20,1.8,19.979,5.005E-002,11.000,7.500,0.000,0.000,0.000,0.000,18.500,No
 Zone Internal Gains Nominal, SP-DATACENTER_MID_ZN_6 SYS-6 FLR-3 SCH-A HPLCMT-CORE ZN,36.20,1.8,19.979,5.005E-002,11.000,7.500,0.000,0.000,0.000,0.000,18.500,No
 Zone Internal Gains Nominal, SP-DATACENTER_TOP_ZN_6 SYS-6 FLR-4 SCH-A HPLCMT-CORE ZN,36.20,1.8,19.979,5.005E-002,11.000,7.500,0.000,0.000,0.000,0.000,18.500,No
 Zone Internal Gains Nominal, SP-GROUNDFLOOR_PLENUM SYS-0 FLR-2 SCH-- UNDEFINED - HPLCMT-NORTH ZN,3563.11,0.0,N/A,0.000,0.000,0.000,0.000,0.000,0.000,0.000,0.000,No
 Zone Internal Gains Nominal, SP-MIDFLOOR_PLENUM SYS-0 FLR-3 SCH-- UNDEFINED - HPLCMT-NORTH ZN,3563.11,0.0,N/A,0.000,0.000,0.000,0.000,0.000,0.000,0.000,0.000,No
 Zone Internal Gains Nominal, SP-PERIMETER_BOT_ZN_1 SYS-6 FLR-2 SCH-A HPLCMT-SOUTH ZN,313.42,15.7,19.979,5.005E-002,11.000,7.500,0.000,0.000,0.000,0.000,18.500,No
 Zone Internal Gains Nominal, SP-PERIMETER_BOT_ZN_2 SYS-6 FLR-2 SCH-A HPLCMT-EAST ZN,201.98,10.1,19.979,5.005E-002,11.000,7.500,0.000,0.000,0.000,0.000,18.500,No
 Zone Internal Gains Nominal, SP-PERIMETER_BOT_ZN_3 SYS-6 FLR-2 SCH-A HPLCMT-NORTH ZN,313.41,15.7,19.979,5.005E-002,11.000,7.500,0.000,0.000,0.000,0.000,18.500,No
 Zone Internal Gains Nominal, SP-PERIMETER_BOT_ZN_4 SYS-6 FLR-2 SCH-A HPLCMT-WEST ZN,201.98,10.1,19.979,5.005E-002,11.000,7.500,0.000,0.000,0.000,0.000,18.500,No
 Zone Internal Gains Nominal, SP-PERIMETER_MID_ZN_1 SYS-6 FLR-3 SCH-A HPLCMT-SOUTH ZN,313.42,15.7,19.979,5.005E-002,11.000,7.500,0.000,0.000,0.000,0.000,18.500,No
 Zone Internal Gains Nominal, SP-PERIMETER_MID_ZN_2 SYS-6 FLR-3 SCH-A HPLCMT-EAST ZN,201.98,10.1,19.979,5.005E-002,11.000,7.500,0.000,0.000,0.000,0.000,18.500,No
 Zone Internal Gains Nominal, SP-PERIMETER_MID_ZN_3 SYS-6 FLR-3 SCH-A HPLCMT-NORTH ZN,313.41,15.7,19.979,5.005E-002,11.000,7.500,0.000,0.000,0.000,0.000,18.500,No
 Zone Internal Gains Nominal, SP-PERIMETER_MID_ZN_4 SYS-6 FLR-3 SCH-A HPLCMT-WEST ZN,201.98,10.1,19.979,5.005E-002,11.000,7.500,0.000,0.000,0.000,0.000,18.500,No
 Zone Internal Gains Nominal, SP-PERIMETER_TOP_ZN_1 SYS-6 FLR-4 SCH-A HPLCMT-SOUTH ZN,313.42,15.7,19.979,5.005E-002,11.000,7.500,0.000,0.000,0.000,0.000,18.500,No
 Zone Internal Gains Nominal, SP-PERIMETER_TOP_ZN_2 SYS-6 FLR-4 SCH-A HPLCMT-EAST ZN,201.98,10.1,19.979,5.005E-002,11.000,7.500,0.000,0.000,0.000,0.000,18.500,No
 Zone Internal Gains Nominal, SP-PERIMETER_TOP_ZN_3 SYS-6 FLR-4 SCH-A HPLCMT-NORTH ZN,313.41,15.7,19.979,5.005E-002,11.000,7.500,0.000,0.000,0.000,0.000,18.500,No
 Zone Internal Gains Nominal, SP-PERIMETER_TOP_ZN_4 SYS-6 FLR-4 SCH-A HPLCMT-WEST ZN,201.98,10.1,19.979,5.005E-002,11.000,7.500,0.000,0.000,0.000,0.000,18.500,No
 Zone Internal Gains Nominal, SP-TOPFLOOR_PLENUM SYS-0 FLR-4 SCH-- UNDEFINED - HPLCMT-NORTH ZN,3563.11,0.0,N/A,0.000,0.000,0.000,0.000,0.000,0.000,0.000,0.000,No
! <People Internal Gains Nominal>,Name,Schedule Name,Zone Name,Zone Floor Area {m2},# Zone Occupants,Number of People {},People/Floor Area {person/m2},Floor Area per person {m2/person},Fraction Radiant,Fraction Convected,Sensible Fraction Calculation,Activity level,ASHRAE 55 Warnings,Carbon Dioxide Generation Rate,Nominal Minimum Number of People,Nominal Maximum Number of People
 People Internal Gains Nominal, SP-BASEMENT SYS-6 FLR-1 SCH-A HPLCMT-NORTH ZN SPACE FUNCTION ELECTRICAL/MECHANICAL-SCH-A PEOPLE,NECB-A-OCCUPANCY,SP-BASEMENT SYS-6 FLR-1 SCH-A HPLCMT-NORTH ZN,2779.43,13.8,13.8,4.951E-003,201.963,0.300,0.700,AutoCalculate,NECB-ACTIVITY,No,3.8200E-008,0,12
 People Internal Gains Nominal, SP-CORE_BOTTOM SYS-6 FLR-2 SCH-A HPLCMT-CORE ZN SPACE FUNCTION OFFICE - OPEN PLAN PEOPLE,NECB-A-OCCUPANCY,SP-CORE_BOTTOM SYS-6 FLR-2 SCH-A HPLCMT-CORE ZN,2496.12,124.9,124.9,5.005E-002,19.979,0.300,0.700,AutoCalculate,NECB-ACTIVITY,No,3.8200E-008,0,112
 People Internal Gains Nominal, SP-CORE_MID SYS-6 FLR-3 SCH-A HPLCMT-CORE ZN SPACE FUNCTION OFFICE - OPEN PLAN PEOPLE,NECB-A-OCCUPANCY,SP-CORE_MID SYS-6 FLR-3 SCH-A HPLCMT-CORE ZN,2496.12,124.9,124.9,5.005E-002,19.979,0.300,0.700,AutoCalculate,NECB-ACTIVITY,No,3.8200E-008,0,112
 People Internal Gains Nominal, SP-CORE_TOP SYS-6 FLR-4 SCH-A HPLCMT-CORE ZN SPACE FUNCTION OFFICE - OPEN PLAN PEOPLE,NECB-A-OCCUPANCY,SP-CORE_TOP SYS-6 FLR-4 SCH-A HPLCMT-CORE ZN,2496.12,124.9,124.9,5.005E-002,19.979,0.300,0.700,AutoCalculate,NECB-ACTIVITY,No,3.8200E-008,0,112
 People Internal Gains Nominal, SP-DATACENTER_BASEMENT_ZN_6 SYS-6 FLR-1 SCH-A HPLCMT-WEST ZN SPACE FUNCTION OFFICE - OPEN PLAN PEOPLE,NECB-A-OCCUPANCY,SP-DATACENTER_BASEMENT_ZN_6 SYS-6 FLR-1 SCH-A HPLCMT-WEST ZN,783.68,39.2,39.2,5.005E-002,19.979,0.300,0.700,AutoCalculate,NECB-ACTIVITY,No,3.8200E-008,0,35
 People Internal Gains Nominal, SP-DATACENTER_BOT_ZN_6 SYS-6 FLR-2 SCH-A HPLCMT-CORE ZN SPACE FUNCTION OFFICE - OPEN PLAN PEOPLE,NECB-A-OCCUPANCY,SP-DATACENTER_BOT_ZN_6 SYS-6 FLR-2 SCH-A HPLCMT-CORE ZN,36.20,1.8,1.8,5.005E-002,19.979,0.300,0.700,AutoCalculate,NECB-ACTIVITY,No,3.8200E-008,0,2
 People Internal Gains Nominal, SP-DATACENTER_MID_ZN_6 SYS-6 FLR-3 SCH-A HPLCMT-CORE ZN SPACE FUNCTION OFFICE - OPEN PLAN PEOPLE,NECB-A-OCCUPANCY,SP-DATACENTER_MID_ZN_6 SYS-6 FLR-3 SCH-A HPLCMT-CORE ZN,36.20,1.8,1.8,5.005E-002,19.979,0.300,0.700,AutoCalculate,NECB-ACTIVITY,No,3.8200E-008,0,2
 People Internal Gains Nominal, SP-DATACENTER_TOP_ZN_6 SYS-6 FLR-4 SCH-A HPLCMT-CORE ZN SPACE FUNCTION OFFICE - OPEN PLAN PEOPLE,NECB-A-OCCUPANCY,SP-DATACENTER_TOP_ZN_6 SYS-6 FLR-4 SCH-A HPLCMT-CORE ZN,36.20,1.8,1.8,5.005E-002,19.979,0.300,0.700,AutoCalculate,NECB-ACTIVITY,No,3.8200E-008,0,2
 People Internal Gains Nominal, SP-PERIMETER_BOT_ZN_1 SYS-6 FLR-2 SCH-A HPLCMT-SOUTH ZN SPACE FUNCTION OFFICE - OPEN PLAN PEOPLE,NECB-A-OCCUPANCY,SP-PERIMETER_BOT_ZN_1 SYS-6 FLR-2 SCH-A HPLCMT-SOUTH ZN,313.42,15.7,15.7,5.005E-002,19.979,0.300,0.700,AutoCalculate,NECB-ACTIVITY,No,3.8200E-008,0,14
 People Internal Gains Nominal, SP-PERIMETER_BOT_ZN_2 SYS-6 FLR-2 SCH-A HPLCMT-EAST ZN SPACE FUNCTION OFFICE - OPEN PLAN PEOPLE,NECB-A-OCCUPANCY,SP-PERIMETER_BOT_ZN_2 SYS-6 FLR-2 SCH-A HPLCMT-EAST ZN,201.98,10.1,10.1,5.005E-002,19.979,0.300,0.700,AutoCalculate,NECB-ACTIVITY,No,3.8200E-008,0,9
 People Internal Gains Nominal, SP-PERIMETER_BOT_ZN_3 SYS-6 FLR-2 SCH-A HPLCMT-NORTH ZN SPACE FUNCTION OFFICE - OPEN PLAN PEOPLE,NECB-A-OCCUPANCY,SP-PERIMETER_BOT_ZN_3 SYS-6 FLR-2 SCH-A HPLCMT-NORTH ZN,313.41,15.7,15.7,5.005E-002,19.979,0.300,0.700,AutoCalculate,NECB-ACTIVITY,No,3.8200E-008,0,14
 People Internal Gains Nominal, SP-PERIMETER_BOT_ZN_4 SYS-6 FLR-2 SCH-A HPLCMT-WEST ZN SPACE FUNCTION OFFICE - OPEN PLAN PEOPLE,NECB-A-OCCUPANCY,SP-PERIMETER_BOT_ZN_4 SYS-6 FLR-2 SCH-A HPLCMT-WEST ZN,201.98,10.1,10.1,5.005E-002,19.979,0.300,0.700,AutoCalculate,NECB-ACTIVITY,No,3.8200E-008,0,9
 People Internal Gains Nominal, SP-PERIMETER_MID_ZN_1 SYS-6 FLR-3 SCH-A HPLCMT-SOUTH ZN SPACE FUNCTION OFFICE - OPEN PLAN PEOPLE,NECB-A-OCCUPANCY,SP-PERIMETER_MID_ZN_1 SYS-6 FLR-3 SCH-A HPLCMT-SOUTH ZN,313.42,15.7,15.7,5.005E-002,19.979,0.300,0.700,AutoCalculate,NECB-ACTIVITY,No,3.8200E-008,0,14
 People Internal Gains Nominal, SP-PERIMETER_MID_ZN_2 SYS-6 FLR-3 SCH-A HPLCMT-EAST ZN SPACE FUNCTION OFFICE - OPEN PLAN PEOPLE,NECB-A-OCCUPANCY,SP-PERIMETER_MID_ZN_2 SYS-6 FLR-3 SCH-A HPLCMT-EAST ZN,201.98,10.1,10.1,5.005E-002,19.979,0.300,0.700,AutoCalculate,NECB-ACTIVITY,No,3.8200E-008,0,9
 People Internal Gains Nominal, SP-PERIMETER_MID_ZN_3 SYS-6 FLR-3 SCH-A HPLCMT-NORTH ZN SPACE FUNCTION OFFICE - OPEN PLAN PEOPLE,NECB-A-OCCUPANCY,SP-PERIMETER_MID_ZN_3 SYS-6 FLR-3 SCH-A HPLCMT-NORTH ZN,313.41,15.7,15.7,5.005E-002,19.979,0.300,0.700,AutoCalculate,NECB-ACTIVITY,No,3.8200E-008,0,14
 People Internal Gains Nominal, SP-PERIMETER_MID_ZN_4 SYS-6 FLR-3 SCH-A HPLCMT-WEST ZN SPACE FUNCTION OFFICE - OPEN PLAN PEOPLE,NECB-A-OCCUPANCY,SP-PERIMETER_MID_ZN_4 SYS-6 FLR-3 SCH-A HPLCMT-WEST ZN,201.98,10.1,10.1,5.005E-002,19.979,0.300,0.700,AutoCalculate,NECB-ACTIVITY,No,3.8200E-008,0,9
 People Internal Gains Nominal, SP-PERIMETER_TOP_ZN_1 SYS-6 FLR-4 SCH-A HPLCMT-SOUTH ZN SPACE FUNCTION OFFICE - OPEN PLAN PEOPLE,NECB-A-OCCUPANCY,SP-PERIMETER_TOP_ZN_1 SYS-6 FLR-4 SCH-A HPLCMT-SOUTH ZN,313.42,15.7,15.7,5.005E-002,19.979,0.300,0.700,AutoCalculate,NECB-ACTIVITY,No,3.8200E-008,0,14
 People Internal Gains Nominal, SP-PERIMETER_TOP_ZN_2 SYS-6 FLR-4 SCH-A HPLCMT-EAST ZN SPACE FUNCTION OFFICE - OPEN PLAN PEOPLE,NECB-A-OCCUPANCY,SP-PERIMETER_TOP_ZN_2 SYS-6 FLR-4 SCH-A HPLCMT-EAST ZN,201.98,10.1,10.1,5.005E-002,19.979,0.300,0.700,AutoCalculate,NECB-ACTIVITY,No,3.8200E-008,0,9
 People Internal Gains Nominal, SP-PERIMETER_TOP_ZN_3 SYS-6 FLR-4 SCH-A HPLCMT-NORTH ZN SPACE FUNCTION OFFICE - OPEN PLAN PEOPLE,NECB-A-OCCUPANCY,SP-PERIMETER_TOP_ZN_3 SYS-6 FLR-4 SCH-A HPLCMT-NORTH ZN,313.41,15.7,15.7,5.005E-002,19.979,0.300,0.700,AutoCalculate,NECB-ACTIVITY,No,3.8200E-008,0,14
 People Internal Gains Nominal, SP-PERIMETER_TOP_ZN_4 SYS-6 FLR-4 SCH-A HPLCMT-WEST ZN SPACE FUNCTION OFFICE - OPEN PLAN PEOPLE,NECB-A-OCCUPANCY,SP-PERIMETER_TOP_ZN_4 SYS-6 FLR-4 SCH-A HPLCMT-WEST ZN,201.98,10.1,10.1,5.005E-002,19.979,0.300,0.700,AutoCalculate,NECB-ACTIVITY,No,3.8200E-008,0,9
! <Lights Internal Gains Nominal>,Name,Schedule Name,Zone Name,Zone Floor Area {m2},# Zone Occupants,Lighting Level {W},Lights/Floor Area {W/m2},Lights per person {W/person},Fraction Return Air,Fraction Radiant,Fraction Short Wave,Fraction Convected,Fraction Replaceable,End-Use Category,Nominal Minimum Lighting Level {W},Nominal Maximum Lighting Level {W}
 Lights Internal Gains Nominal, SP-BASEMENT SYS-6 FLR-1 SCH-A HPLCMT-NORTH ZN SPACE FUNCTION ELECTRICAL/MECHANICAL-SCH-A LIGHTS,NECB-A-LIGHTING,SP-BASEMENT SYS-6 FLR-1 SCH-A HPLCMT-NORTH ZN,2779.43,13.8,36966.066,13.300,2686.087,0.000,0.500,0.200,0.300,1.000,General,1848.303,33269.460
 Lights Internal Gains Nominal, SP-CORE_BOTTOM SYS-6 FLR-2 SCH-A HPLCMT-CORE ZN SPACE FUNCTION OFFICE - OPEN PLAN LIGHTS,NECB-A-LIGHTING,SP-CORE_BOTTOM SYS-6 FLR-2 SCH-A HPLCMT-CORE ZN,2496.12,124.9,27457.097,11.000,219.769,0.000,0.500,0.200,0.300,1.000,General,1372.855,24711.387
 Lights Internal Gains Nominal, SP-CORE_MID SYS-6 FLR-3 SCH-A HPLCMT-CORE ZN SPACE FUNCTION OFFICE - OPEN PLAN LIGHTS,NECB-A-LIGHTING,SP-CORE_MID SYS-6 FLR-3 SCH-A HPLCMT-CORE ZN,2496.12,124.9,27457.097,11.000,219.769,0.000,0.500,0.200,0.300,1.000,General,1372.855,24711.387
 Lights Internal Gains Nominal, SP-CORE_TOP SYS-6 FLR-4 SCH-A HPLCMT-CORE ZN SPACE FUNCTION OFFICE - OPEN PLAN LIGHTS,NECB-A-LIGHTING,SP-CORE_TOP SYS-6 FLR-4 SCH-A HPLCMT-CORE ZN,2496.12,124.9,27457.097,11.000,219.769,0.000,0.500,0.200,0.300,1.000,General,1372.855,24711.387
 Lights Internal Gains Nominal, SP-DATACENTER_BASEMENT_ZN_6 SYS-6 FLR-1 SCH-A HPLCMT-WEST ZN SPACE FUNCTION OFFICE - OPEN PLAN LIGHTS,NECB-A-LIGHTING,SP-DATACENTER_BASEMENT_ZN_6 SYS-6 FLR-1 SCH-A HPLCMT-WEST ZN,783.68,39.2,8620.402,11.000,219.769,0.000,0.500,0.200,0.300,1.000,General,431.020,7758.362
 Lights Internal Gains Nominal, SP-DATACENTER_BOT_ZN_6 SYS-6 FLR-2 SCH-A HPLCMT-CORE ZN SPACE FUNCTION OFFICE - OPEN PLAN LIGHTS,NECB-A-LIGHTING,SP-DATACENTER_BOT_ZN_6 SYS-6 FLR-2 SCH-A HPLCMT-CORE ZN,36.20,1.8,398.227,11.000,219.769,0.000,0.500,0.200,0.300,1.000,General,19.911,358.404
 Lights Internal Gains Nominal, SP-DATACENTER_MID_ZN_6 SYS-6 FLR-3 SCH-A HPLCMT-CORE ZN SPACE FUNCTION OFFICE - OPEN PLAN LIGHTS,NECB-A-LIGHTING,SP-DATACENTER_MID_ZN_6 SYS-6 FLR-3 SCH-A HPLCMT-CORE ZN,36.20,1.8,398.227,11.000,219.769,0.000,0.500,0.200,0.300,1.000,General,19.911,358.404
 Lights Internal Gains Nominal, SP-DATACENTER_TOP_ZN_6 SYS-6 FLR-4 SCH-A HPLCMT-CORE ZN SPACE FUNCTION OFFICE - OPEN PLAN LIGHTS,NECB-A-LIGHTING,SP-DATACENTER_TOP_ZN_6 SYS-6 FLR-4 SCH-A HPLCMT-CORE ZN,36.20,1.8,398.227,11.000,219.769,0.000,0.500,0.200,0.300,1.000,General,19.911,358.404
 Lights Internal Gains Nominal, SP-PERIMETER_BOT_ZN_1 SYS-6 FLR-2 SCH-A HPLCMT-SOUTH ZN SPACE FUNCTION OFFICE - OPEN PLAN LIGHTS,NECB-A-LIGHTING,SP-PERIMETER_BOT_ZN_1 SYS-6 FLR-2 SCH-A HPLCMT-SOUTH ZN,313.42,15.7,3447.588,11.000,219.769,0.000,0.500,0.200,0.300,1.000,General,172.379,3102.829
 Lights Internal Gains Nominal, SP-PERIMETER_BOT_ZN_2 SYS-6 FLR-2 SCH-A HPLCMT-EAST ZN SPACE FUNCTION OFFICE - OPEN PLAN LIGHTS,NECB-A-LIGHTING,SP-PERIMETER_BOT_ZN_2 SYS-6 FLR-2 SCH-A HPLCMT-EAST ZN,201.98,10.1,2221.708,11.000,219.769,0.000,0.500,0.200,0.300,1.000,General,111.085,1999.537
 Lights Internal Gains Nominal, SP-PERIMETER_BOT_ZN_3 SYS-6 FLR-2 SCH-A HPLCMT-NORTH ZN SPACE FUNCTION OFFICE - OPEN PLAN LIGHTS,NECB-A-LIGHTING,SP-PERIMETER_BOT_ZN_3 SYS-6 FLR-2 SCH-A HPLCMT-NORTH ZN,313.41,15.7,3447.512,11.000,219.769,0.000,0.500,0.200,0.300,1.000,General,172.376,3102.761
 Lights Internal Gains Nominal, SP-PERIMETER_BOT_ZN_4 SYS-6 FLR-2 SCH-A HPLCMT-WEST ZN SPACE FUNCTION OFFICE - OPEN PLAN LIGHTS,NECB-A-LIGHTING,SP-PERIMETER_BOT_ZN_4 SYS-6 FLR-2 SCH-A HPLCMT-WEST ZN,201.98,10.1,2221.708,11.000,219.769,0.000,0.500,0.200,0.300,1.000,General,111.085,1999.537
 Lights Internal Gains Nominal, SP-PERIMETER_MID_ZN_1 SYS-6 FLR-3 SCH-A HPLCMT-SOUTH ZN SPACE FUNCTION OFFICE - OPEN PLAN LIGHTS,NECB-A-LIGHTING,SP-PERIMETER_MID_ZN_1 SYS-6 FLR-3 SCH-A HPLCMT-SOUTH ZN,313.42,15.7,3447.588,11.000,219.769,0.000,0.500,0.200,0.300,1.000,General,172.379,3102.829
 Lights Internal Gains Nominal, SP-PERIMETER_MID_ZN_2 SYS-6 FLR-3 SCH-A HPLCMT-EAST ZN SPACE FUNCTION OFFICE - OPEN PLAN LIGHTS,NECB-A-LIGHTING,SP-PERIMETER_MID_ZN_2 SYS-6 FLR-3 SCH-A HPLCMT-EAST ZN,201.98,10.1,2221.708,11.000,219.769,0.000,0.500,0.200,0.300,1.000,General,111.085,1999.537
 Lights Internal Gains Nominal, SP-PERIMETER_MID_ZN_3 SYS-6 FLR-3 SCH-A HPLCMT-NORTH ZN SPACE FUNCTION OFFICE - OPEN PLAN LIGHTS,NECB-A-LIGHTING,SP-PERIMETER_MID_ZN_3 SYS-6 FLR-3 SCH-A HPLCMT-NORTH ZN,313.41,15.7,3447.512,11.000,219.769,0.000,0.500,0.200,0.300,1.000,General,172.376,3102.761
 Lights Internal Gains Nominal, SP-PERIMETER_MID_ZN_4 SYS-6 FLR-3 SCH-A HPLCMT-WEST ZN SPACE FUNCTION OFFICE - OPEN PLAN LIGHTS,NECB-A-LIGHTING,SP-PERIMETER_MID_ZN_4 SYS-6 FLR-3 SCH-A HPLCMT-WEST ZN,201.98,10.1,2221.708,11.000,219.769,0.000,0.500,0.200,0.300,1.000,General,111.085,1999.537
 Lights Internal Gains Nominal, SP-PERIMETER_TOP_ZN_1 SYS-6 FLR-4 SCH-A HPLCMT-SOUTH ZN SPACE FUNCTION OFFICE - OPEN PLAN LIGHTS,NECB-A-LIGHTING,SP-PERIMETER_TOP_ZN_1 SYS-6 FLR-4 SCH-A HPLCMT-SOUTH ZN,313.42,15.7,3447.588,11.000,219.769,0.000,0.500,0.200,0.300,1.000,General,172.379,3102.829
 Lights Internal Gains Nominal, SP-PERIMETER_TOP_ZN_2 SYS-6 FLR-4 SCH-A HPLCMT-EAST ZN SPACE FUNCTION OFFICE - OPEN PLAN LIGHTS,NECB-A-LIGHTING,SP-PERIMETER_TOP_ZN_2 SYS-6 FLR-4 SCH-A HPLCMT-EAST ZN,201.98,10.1,2221.708,11.000,219.769,0.000,0.500,0.200,0.300,1.000,General,111.085,1999.537
 Lights Internal Gains Nominal, SP-PERIMETER_TOP_ZN_3 SYS-6 FLR-4 SCH-A HPLCMT-NORTH ZN SPACE FUNCTION OFFICE - OPEN PLAN LIGHTS,NECB-A-LIGHTING,SP-PERIMETER_TOP_ZN_3 SYS-6 FLR-4 SCH-A HPLCMT-NORTH ZN,313.41,15.7,3447.512,11.000,219.769,0.000,0.500,0.200,0.300,1.000,General,172.376,3102.761
 Lights Internal Gains Nominal, SP-PERIMETER_TOP_ZN_4 SYS-6 FLR-4 SCH-A HPLCMT-WEST ZN SPACE FUNCTION OFFICE - OPEN PLAN LIGHTS,NECB-A-LIGHTING,SP-PERIMETER_TOP_ZN_4 SYS-6 FLR-4 SCH-A HPLCMT-WEST ZN,201.98,10.1,2221.708,11.000,219.769,0.000,0.500,0.200,0.300,1.000,General,111.085,1999.537
! <ElectricEquipment Internal Gains Nominal>,Name,Schedule Name,Zone Name,Zone Floor Area {m2},# Zone Occupants,Equipment Level {W},Equipment/Floor Area {W/m2},Equipment per person {W/person},Fraction Latent,Fraction Radiant,Fraction Lost,Fraction Convected,End-Use SubCategory,Nominal Minimum Equipment Level {W},Nominal Maximum Equipment Level {W}
 ElectricEquipment Internal Gains Nominal, SP-BASEMENT SYS-6 FLR-1 SCH-A HPLCMT-NORTH ZN SPACE FUNCTION ELECTRICAL/MECHANICAL-SCH-A ELEC EQUIP,NECB-A-ELECTRIC-EQUIPMENT,SP-BASEMENT SYS-6 FLR-1 SCH-A HPLCMT-NORTH ZN,2779.43,13.8,2779.403,1.000,201.961,0.000,0.500,0.000,0.500,General,555.881,2501.463
 ElectricEquipment Internal Gains Nominal, SP-CORE_BOTTOM SYS-6 FLR-2 SCH-A HPLCMT-CORE ZN SPACE FUNCTION OFFICE - OPEN PLAN ELEC EQUIP,NECB-A-ELECTRIC-EQUIPMENT,SP-CORE_BOTTOM SYS-6 FLR-2 SCH-A HPLCMT-CORE ZN,2496.12,124.9,18720.748,7.500,149.842,0.000,0.500,0.000,0.500,General,3744.150,16848.673
 ElectricEquipment Internal Gains Nominal, SP-CORE_MID SYS-6 FLR-3 SCH-A HPLCMT-CORE ZN SPACE FUNCTION OFFICE - OPEN PLAN ELEC EQUIP,NECB-A-ELECTRIC-EQUIPMENT,SP-CORE_MID SYS-6 FLR-3 SCH-A HPLCMT-CORE ZN,2496.12,124.9,18720.748,7.500,149.842,0.000,0.500,0.000,0.500,General,3744.150,16848.673
 ElectricEquipment Internal Gains Nominal, SP-CORE_TOP SYS-6 FLR-4 SCH-A HPLCMT-CORE ZN SPACE FUNCTION OFFICE - OPEN PLAN ELEC EQUIP,NECB-A-ELECTRIC-EQUIPMENT,SP-CORE_TOP SYS-6 FLR-4 SCH-A HPLCMT-CORE ZN,2496.12,124.9,18720.748,7.500,149.842,0.000,0.500,0.000,0.500,General,3744.150,16848.673
 ElectricEquipment Internal Gains Nominal, SP-DATACENTER_BASEMENT_ZN_6 SYS-6 FLR-1 SCH-A HPLCMT-WEST ZN SPACE FUNCTION OFFICE - OPEN PLAN ELEC EQUIP,NECB-A-ELECTRIC-EQUIPMENT,SP-DATACENTER_BASEMENT_ZN_6 SYS-6 FLR-1 SCH-A HPLCMT-WEST ZN,783.68,39.2,5877.547,7.500,149.842,0.000,0.500,0.000,0.500,General,1175.509,5289.792
 ElectricEquipment Internal Gains Nominal, SP-DATACENTER_BOT_ZN_6 SYS-6 FLR-2 SCH-A HPLCMT-CORE ZN SPACE FUNCTION OFFICE - OPEN PLAN ELEC EQUIP,NECB-A-ELECTRIC-EQUIPMENT,SP-DATACENTER_BOT_ZN_6 SYS-6 FLR-2 SCH-A HPLCMT-CORE ZN,36.20,1.8,271.518,7.500,149.842,0.000,0.500,0.000,0.500,General,54.304,244.366
 ElectricEquipment Internal Gains Nominal, SP-DATACENTER_MID_ZN_6 SYS-6 FLR-3 SCH-A HPLCMT-CORE ZN SPACE FUNCTION OFFICE - OPEN PLAN ELEC EQUIP,NECB-A-ELECTRIC-EQUIPMENT,SP-DATACENTER_MID_ZN_6 SYS-6 FLR-3 SCH-A HPLCMT-CORE ZN,36.20,1.8,271.518,7.500,149.842,0.000,0.500,0.000,0.500,General,54.304,244.366
 ElectricEquipment Internal Gains Nominal, SP-DATACENTER_TOP_ZN_6 SYS-6 FLR-4 SCH-A HPLCMT-CORE ZN SPACE FUNCTION OFFICE - OPEN PLAN ELEC EQUIP,NECB-A-ELECTRIC-EQUIPMENT,SP-DATACENTER_TOP_ZN_6 SYS-6 FLR-4 SCH-A HPLCMT-CORE ZN,36.20,1.8,271.518,7.500,149.842,0.000,0.500,0.000,0.500,General,54.304,244.366
 ElectricEquipment Internal Gains Nominal, SP-PERIMETER_BOT_ZN_1 SYS-6 FLR-2 SCH-A HPLCMT-SOUTH ZN SPACE FUNCTION OFFICE - OPEN PLAN ELEC EQUIP,NECB-A-ELECTRIC-EQUIPMENT,SP-PERIMETER_BOT_ZN_1 SYS-6 FLR-2 SCH-A HPLCMT-SOUTH ZN,313.42,15.7,2350.628,7.500,149.842,0.000,0.500,0.000,0.500,General,470.126,2115.565
 ElectricEquipment Internal Gains Nominal, SP-PERIMETER_BOT_ZN_2 SYS-6 FLR-2 SCH-A HPLCMT-EAST ZN SPACE FUNCTION OFFICE - OPEN PLAN ELEC EQUIP,NECB-A-ELECTRIC-EQUIPMENT,SP-PERIMETER_BOT_ZN_2 SYS-6 FLR-2 SCH-A HPLCMT-EAST ZN,201.98,10.1,1514.801,7.500,149.842,0.000,0.500,0.000,0.500,General,302.960,1363.321
 ElectricEquipment Internal Gains Nominal, SP-PERIMETER_BOT_ZN_3 SYS-6 FLR-2 SCH-A HPLCMT-NORTH ZN SPACE FUNCTION OFFICE - OPEN PLAN ELEC EQUIP,NECB-A-ELECTRIC-EQUIPMENT,SP-PERIMETER_BOT_ZN_3 SYS-6 FLR-2 SCH-A HPLCMT-NORTH ZN,313.41,15.7,2350.577,7.500,149.842,0.000,0.500,0.000,0.500,General,470.115,2115.519
 ElectricEquipment Internal Gains Nominal, SP-PERIMETER_BOT_ZN_4 SYS-6 FLR-2 SCH-A HPLCMT-WEST ZN SPACE FUNCTION OFFICE - OPEN PLAN ELEC EQUIP,NECB-A-ELECTRIC-EQUIPMENT,SP-PERIMETER_BOT_ZN_4 SYS-6 FLR-2 SCH-A HPLCMT-WEST ZN,201.98,10.1,1514.801,7.500,149.842,0.000,0.500,0.000,0.500,General,302.960,1363.321
 ElectricEquipment Internal Gains Nominal, SP-PERIMETER_MID_ZN_1 SYS-6 FLR-3 SCH-A HPLCMT-SOUTH ZN SPACE FUNCTION OFFICE - OPEN PLAN ELEC EQUIP,NECB-A-ELECTRIC-EQUIPMENT,SP-PERIMETER_MID_ZN_1 SYS-6 FLR-3 SCH-A HPLCMT-SOUTH ZN,313.42,15.7,2350.628,7.500,149.842,0.000,0.500,0.000,0.500,General,470.126,2115.565
 ElectricEquipment Internal Gains Nominal, SP-PERIMETER_MID_ZN_2 SYS-6 FLR-3 SCH-A HPLCMT-EAST ZN SPACE FUNCTION OFFICE - OPEN PLAN ELEC EQUIP,NECB-A-ELECTRIC-EQUIPMENT,SP-PERIMETER_MID_ZN_2 SYS-6 FLR-3 SCH-A HPLCMT-EAST ZN,201.98,10.1,1514.801,7.500,149.842,0.000,0.500,0.000,0.500,General,302.960,1363.321
 ElectricEquipment Internal Gains Nominal, SP-PERIMETER_MID_ZN_3 SYS-6 FLR-3 SCH-A HPLCMT-NORTH ZN SPACE FUNCTION OFFICE - OPEN PLAN ELEC EQUIP,NECB-A-ELECTRIC-EQUIPMENT,SP-PERIMETER_MID_ZN_3 SYS-6 FLR-3 SCH-A HPLCMT-NORTH ZN,313.41,15.7,2350.577,7.500,149.842,0.000,0.500,0.000,0.500,General,470.115,2115.519
 ElectricEquipment Internal Gains Nominal, SP-PERIMETER_MID_ZN_4 SYS-6 FLR-3 SCH-A HPLCMT-WEST ZN SPACE FUNCTION OFFICE - OPEN PLAN ELEC EQUIP,NECB-A-ELECTRIC-EQUIPMENT,SP-PERIMETER_MID_ZN_4 SYS-6 FLR-3 SCH-A HPLCMT-WEST ZN,201.98,10.1,1514.801,7.500,149.842,0.000,0.500,0.000,0.500,General,302.960,1363.321
 ElectricEquipment Internal Gains Nominal, SP-PERIMETER_TOP_ZN_1 SYS-6 FLR-4 SCH-A HPLCMT-SOUTH ZN SPACE FUNCTION OFFICE - OPEN PLAN ELEC EQUIP,NECB-A-ELECTRIC-EQUIPMENT,SP-PERIMETER_TOP_ZN_1 SYS-6 FLR-4 SCH-A HPLCMT-SOUTH ZN,313.42,15.7,2350.628,7.500,149.842,0.000,0.500,0.000,0.500,General,470.126,2115.565
 ElectricEquipment Internal Gains Nominal, SP-PERIMETER_TOP_ZN_2 SYS-6 FLR-4 SCH-A HPLCMT-EAST ZN SPACE FUNCTION OFFICE - OPEN PLAN ELEC EQUIP,NECB-A-ELECTRIC-EQUIPMENT,SP-PERIMETER_TOP_ZN_2 SYS-6 FLR-4 SCH-A HPLCMT-EAST ZN,201.98,10.1,1514.801,7.500,149.842,0.000,0.500,0.000,0.500,General,302.960,1363.321
 ElectricEquipment Internal Gains Nominal, SP-PERIMETER_TOP_ZN_3 SYS-6 FLR-4 SCH-A HPLCMT-NORTH ZN SPACE FUNCTION OFFICE - OPEN PLAN ELEC EQUIP,NECB-A-ELECTRIC-EQUIPMENT,SP-PERIMETER_TOP_ZN_3 SYS-6 FLR-4 SCH-A HPLCMT-NORTH ZN,313.41,15.7,2350.577,7.500,149.842,0.000,0.500,0.000,0.500,General,470.115,2115.519
 ElectricEquipment Internal Gains Nominal, SP-PERIMETER_TOP_ZN_4 SYS-6 FLR-4 SCH-A HPLCMT-WEST ZN SPACE FUNCTION OFFICE - OPEN PLAN ELEC EQUIP,NECB-A-ELECTRIC-EQUIPMENT,SP-PERIMETER_TOP_ZN_4 SYS-6 FLR-4 SCH-A HPLCMT-WEST ZN,201.98,10.1,1514.801,7.500,149.842,0.000,0.500,0.000,0.500,General,302.960,1363.321
! <Shadowing/Sun Position Calculations Annual Simulations>, Calculation Method, Value {days}, Allowable Number Figures in Shadow Overlap {}, Polygon Clipping Algorithm, Sky Diffuse Modeling Algorithm, External Shading Calculation Method, Output External Shading Calculation Results, Disable Self-Shading Within Shading Zone Groups, Disable Self-Shading From Shading Zone Groups to Other Zones
Shadowing/Sun Position Calculations Annual Simulations,AverageOverDaysInFrequency,20,15000,SutherlandHodgman,SimpleSkyDiffuseModeling,InternalCalculation,No,No,No
! <Water Heater Information>,Type,Name,Volume {m3},Maximum Capacity {W},Standard Rated Recovery Efficiency, Standard Rated Energy Factor
! <ZoneInfiltration Airflow Stats Nominal>,Name,Schedule Name,Zone Name, Zone Floor Area {m2}, # Zone Occupants,Design Volume Flow Rate {m3/s},Volume Flow Rate/Floor Area {m3/s/m2},Volume Flow Rate/Exterior Surface Area {m3/s/m2},ACH - Air Changes per Hour,Equation A - Constant Term Coefficient {},Equation B - Temperature Term Coefficient {1/C},Equation C - Velocity Term Coefficient {s/m}, Equation D - Velocity Squared Term Coefficient {s2/m2}
 ZoneInfiltration Airflow Stats Nominal, GROUNDFLOOR_PLENUM INFILTRATION,ALWAYS ON DISCRETE,SP-GROUNDFLOOR_PLENUM SYS-0 FLR-2 SCH-- UNDEFINED - HPLCMT-NORTH ZN,3563.11,0.0,7.428E-002,2.085E-005,2.500E-004,6.155E-002,0.000,0.000,0.224,0.000
 ZoneInfiltration Airflow Stats Nominal, MIDFLOOR_PLENUM INFILTRATION,ALWAYS ON DISCRETE,SP-MIDFLOOR_PLENUM SYS-0 FLR-3 SCH-- UNDEFINED - HPLCMT-NORTH ZN,3563.11,0.0,7.428E-002,2.085E-005,2.500E-004,6.155E-002,0.000,0.000,0.224,0.000
 ZoneInfiltration Airflow Stats Nominal, PERIMETER_BOT_ZN_1 INFILTRATION,ALWAYS ON DISCRETE,SP-PERIMETER_BOT_ZN_1 SYS-6 FLR-2 SCH-A HPLCMT-SOUTH ZN,313.42,15.7,5.015E-002,1.600E-004,2.500E-004,0.210,0.000,0.000,0.224,0.000
 ZoneInfiltration Airflow Stats Nominal, PERIMETER_BOT_ZN_2 INFILTRATION,ALWAYS ON DISCRETE,SP-PERIMETER_BOT_ZN_2 SYS-6 FLR-2 SCH-A HPLCMT-EAST ZN,201.98,10.1,3.343E-002,1.655E-004,2.500E-004,0.217,0.000,0.000,0.224,0.000
 ZoneInfiltration Airflow Stats Nominal, PERIMETER_BOT_ZN_3 INFILTRATION,ALWAYS ON DISCRETE,SP-PERIMETER_BOT_ZN_3 SYS-6 FLR-2 SCH-A HPLCMT-NORTH ZN,313.41,15.7,5.015E-002,1.600E-004,2.500E-004,0.210,0.000,0.000,0.224,0.000
 ZoneInfiltration Airflow Stats Nominal, PERIMETER_BOT_ZN_4 INFILTRATION,ALWAYS ON DISCRETE,SP-PERIMETER_BOT_ZN_4 SYS-6 FLR-2 SCH-A HPLCMT-WEST ZN,201.98,10.1,3.343E-002,1.655E-004,2.500E-004,0.217,0.000,0.000,0.224,0.000
 ZoneInfiltration Airflow Stats Nominal, PERIMETER_MID_ZN_1 INFILTRATION,ALWAYS ON DISCRETE,SP-PERIMETER_MID_ZN_1 SYS-6 FLR-3 SCH-A HPLCMT-SOUTH ZN,313.42,15.7,5.015E-002,1.600E-004,2.500E-004,0.210,0.000,0.000,0.224,0.000
 ZoneInfiltration Airflow Stats Nominal, PERIMETER_MID_ZN_2 INFILTRATION,ALWAYS ON DISCRETE,SP-PERIMETER_MID_ZN_2 SYS-6 FLR-3 SCH-A HPLCMT-EAST ZN,201.98,10.1,3.343E-002,1.655E-004,2.500E-004,0.217,0.000,0.000,0.224,0.000
 ZoneInfiltration Airflow Stats Nominal, PERIMETER_MID_ZN_3 INFILTRATION,ALWAYS ON DISCRETE,SP-PERIMETER_MID_ZN_3 SYS-6 FLR-3 SCH-A HPLCMT-NORTH ZN,313.41,15.7,5.015E-002,1.600E-004,2.500E-004,0.210,0.000,0.000,0.224,0.000
 ZoneInfiltration Airflow Stats Nominal, PERIMETER_MID_ZN_4 INFILTRATION,ALWAYS ON DISCRETE,SP-PERIMETER_MID_ZN_4 SYS-6 FLR-3 SCH-A HPLCMT-WEST ZN,201.98,10.1,3.343E-002,1.655E-004,2.500E-004,0.217,0.000,0.000,0.224,0.000
 ZoneInfiltration Airflow Stats Nominal, PERIMETER_TOP_ZN_1 INFILTRATION,ALWAYS ON DISCRETE,SP-PERIMETER_TOP_ZN_1 SYS-6 FLR-4 SCH-A HPLCMT-SOUTH ZN,313.42,15.7,5.015E-002,1.600E-004,2.500E-004,0.210,0.000,0.000,0.224,0.000
 ZoneInfiltration Airflow Stats Nominal, PERIMETER_TOP_ZN_2 INFILTRATION,ALWAYS ON DISCRETE,SP-PERIMETER_TOP_ZN_2 SYS-6 FLR-4 SCH-A HPLCMT-EAST ZN,201.98,10.1,3.343E-002,1.655E-004,2.500E-004,0.217,0.000,0.000,0.224,0.000
 ZoneInfiltration Airflow Stats Nominal, PERIMETER_TOP_ZN_3 INFILTRATION,ALWAYS ON DISCRETE,SP-PERIMETER_TOP_ZN_3 SYS-6 FLR-4 SCH-A HPLCMT-NORTH ZN,313.41,15.7,5.015E-002,1.600E-004,2.500E-004,0.210,0.000,0.000,0.224,0.000
 ZoneInfiltration Airflow Stats Nominal, PERIMETER_TOP_ZN_4 INFILTRATION,ALWAYS ON DISCRETE,SP-PERIMETER_TOP_ZN_4 SYS-6 FLR-4 SCH-A HPLCMT-WEST ZN,201.98,10.1,3.343E-002,1.655E-004,2.500E-004,0.217,0.000,0.000,0.224,0.000
 ZoneInfiltration Airflow Stats Nominal, TOPFLOOR_PLENUM INFILTRATION,ALWAYS ON DISCRETE,SP-TOPFLOOR_PLENUM SYS-0 FLR-4 SCH-- UNDEFINED - HPLCMT-NORTH ZN,3563.11,0.0,0.965,2.708E-004,2.500E-004,0.800,0.000,0.000,0.224,0.000
! <AirFlow Model>, Simple
 AirFlow Model, Simple
! <RoomAir Model>, Zone Name, Mixing/Mundt/UCSDDV/UCSDCV/UCSDUFI/UCSDUFE/User Defined
RoomAir Model,SP-BASEMENT SYS-6 FLR-1 SCH-A HPLCMT-NORTH ZN,Mixing/Well-Stirred
RoomAir Model,SP-CORE_BOTTOM SYS-6 FLR-2 SCH-A HPLCMT-CORE ZN,Mixing/Well-Stirred
RoomAir Model,SP-CORE_MID SYS-6 FLR-3 SCH-A HPLCMT-CORE ZN,Mixing/Well-Stirred
RoomAir Model,SP-CORE_TOP SYS-6 FLR-4 SCH-A HPLCMT-CORE ZN,Mixing/Well-Stirred
RoomAir Model,SP-DATACENTER_BASEMENT_ZN_6 SYS-6 FLR-1 SCH-A HPLCMT-WEST ZN,Mixing/Well-Stirred
RoomAir Model,SP-DATACENTER_BOT_ZN_6 SYS-6 FLR-2 SCH-A HPLCMT-CORE ZN,Mixing/Well-Stirred
RoomAir Model,SP-DATACENTER_MID_ZN_6 SYS-6 FLR-3 SCH-A HPLCMT-CORE ZN,Mixing/Well-Stirred
RoomAir Model,SP-DATACENTER_TOP_ZN_6 SYS-6 FLR-4 SCH-A HPLCMT-CORE ZN,Mixing/Well-Stirred
RoomAir Model,SP-GROUNDFLOOR_PLENUM SYS-0 FLR-2 SCH-- UNDEFINED - HPLCMT-NORTH ZN,Mixing/Well-Stirred
RoomAir Model,SP-MIDFLOOR_PLENUM SYS-0 FLR-3 SCH-- UNDEFINED - HPLCMT-NORTH ZN,Mixing/Well-Stirred
RoomAir Model,SP-PERIMETER_BOT_ZN_1 SYS-6 FLR-2 SCH-A HPLCMT-SOUTH ZN,Mixing/Well-Stirred
RoomAir Model,SP-PERIMETER_BOT_ZN_2 SYS-6 FLR-2 SCH-A HPLCMT-EAST ZN,Mixing/Well-Stirred
RoomAir Model,SP-PERIMETER_BOT_ZN_3 SYS-6 FLR-2 SCH-A HPLCMT-NORTH ZN,Mixing/Well-Stirred
RoomAir Model,SP-PERIMETER_BOT_ZN_4 SYS-6 FLR-2 SCH-A HPLCMT-WEST ZN,Mixing/Well-Stirred
RoomAir Model,SP-PERIMETER_MID_ZN_1 SYS-6 FLR-3 SCH-A HPLCMT-SOUTH ZN,Mixing/Well-Stirred
RoomAir Model,SP-PERIMETER_MID_ZN_2 SYS-6 FLR-3 SCH-A HPLCMT-EAST ZN,Mixing/Well-Stirred
RoomAir Model,SP-PERIMETER_MID_ZN_3 SYS-6 FLR-3 SCH-A HPLCMT-NORTH ZN,Mixing/Well-Stirred
RoomAir Model,SP-PERIMETER_MID_ZN_4 SYS-6 FLR-3 SCH-A HPLCMT-WEST ZN,Mixing/Well-Stirred
RoomAir Model,SP-PERIMETER_TOP_ZN_1 SYS-6 FLR-4 SCH-A HPLCMT-SOUTH ZN,Mixing/Well-Stirred
RoomAir Model,SP-PERIMETER_TOP_ZN_2 SYS-6 FLR-4 SCH-A HPLCMT-EAST ZN,Mixing/Well-Stirred
RoomAir Model,SP-PERIMETER_TOP_ZN_3 SYS-6 FLR-4 SCH-A HPLCMT-NORTH ZN,Mixing/Well-Stirred
RoomAir Model,SP-PERIMETER_TOP_ZN_4 SYS-6 FLR-4 SCH-A HPLCMT-WEST ZN,Mixing/Well-Stirred
RoomAir Model,SP-TOPFLOOR_PLENUM SYS-0 FLR-4 SCH-- UNDEFINED - HPLCMT-NORTH ZN,Mixing/Well-Stirred
! <AirflowNetwork Model:Control>, No Multizone or Distribution/Multizone with Distribution/Multizone without Distribution/Multizone with Distribution only during Fan Operation
AirflowNetwork Model:Control,NoMultizoneOrDistribution
! <Zone Volume Capacitance Multiplier>, Sensible Heat Capacity Multiplier, Moisture Capacity Multiplier, Carbon Dioxide Capacity Multiplier, Generic Contaminant Capacity Multiplier
Zone Volume Capacitance Multiplier,   1.000 ,   1.000,   1.000,   1.000
! <Load Timesteps in Zone Design Calculation Averaging Window>, Value
 Load Timesteps in Zone Design Calculation Averaging Window,    6
! <Heating Sizing Factor Information>, Sizing Factor ID, Value
 Heating Sizing Factor Information, Global,   1.3000    
 Heating Sizing Factor Information, Zone SP-BASEMENT SYS-6 FLR-1 SCH-A HPLCMT-NORTH ZN,   1.3000    
 Heating Sizing Factor Information, Zone SP-CORE_BOTTOM SYS-6 FLR-2 SCH-A HPLCMT-CORE ZN,   1.3000    
 Heating Sizing Factor Information, Zone SP-CORE_MID SYS-6 FLR-3 SCH-A HPLCMT-CORE ZN,   1.3000    
 Heating Sizing Factor Information, Zone SP-CORE_TOP SYS-6 FLR-4 SCH-A HPLCMT-CORE ZN,   1.3000    
 Heating Sizing Factor Information, Zone SP-DATACENTER_BASEMENT_ZN_6 SYS-6 FLR-1 SCH-A HPLCMT-WEST ZN,   1.3000    
 Heating Sizing Factor Information, Zone SP-DATACENTER_BOT_ZN_6 SYS-6 FLR-2 SCH-A HPLCMT-CORE ZN,   1.3000    
 Heating Sizing Factor Information, Zone SP-DATACENTER_MID_ZN_6 SYS-6 FLR-3 SCH-A HPLCMT-CORE ZN,   1.3000    
 Heating Sizing Factor Information, Zone SP-DATACENTER_TOP_ZN_6 SYS-6 FLR-4 SCH-A HPLCMT-CORE ZN,   1.3000    
 Heating Sizing Factor Information, Zone SP-PERIMETER_BOT_ZN_1 SYS-6 FLR-2 SCH-A HPLCMT-SOUTH ZN,   1.3000    
 Heating Sizing Factor Information, Zone SP-PERIMETER_BOT_ZN_2 SYS-6 FLR-2 SCH-A HPLCMT-EAST ZN,   1.3000    
 Heating Sizing Factor Information, Zone SP-PERIMETER_BOT_ZN_3 SYS-6 FLR-2 SCH-A HPLCMT-NORTH ZN,   1.3000    
 Heating Sizing Factor Information, Zone SP-PERIMETER_BOT_ZN_4 SYS-6 FLR-2 SCH-A HPLCMT-WEST ZN,   1.3000    
 Heating Sizing Factor Information, Zone SP-PERIMETER_MID_ZN_1 SYS-6 FLR-3 SCH-A HPLCMT-SOUTH ZN,   1.3000    
 Heating Sizing Factor Information, Zone SP-PERIMETER_MID_ZN_2 SYS-6 FLR-3 SCH-A HPLCMT-EAST ZN,   1.3000    
 Heating Sizing Factor Information, Zone SP-PERIMETER_MID_ZN_3 SYS-6 FLR-3 SCH-A HPLCMT-NORTH ZN,   1.3000    
 Heating Sizing Factor Information, Zone SP-PERIMETER_MID_ZN_4 SYS-6 FLR-3 SCH-A HPLCMT-WEST ZN,   1.3000    
 Heating Sizing Factor Information, Zone SP-PERIMETER_TOP_ZN_1 SYS-6 FLR-4 SCH-A HPLCMT-SOUTH ZN,   1.3000    
 Heating Sizing Factor Information, Zone SP-PERIMETER_TOP_ZN_2 SYS-6 FLR-4 SCH-A HPLCMT-EAST ZN,   1.3000    
 Heating Sizing Factor Information, Zone SP-PERIMETER_TOP_ZN_3 SYS-6 FLR-4 SCH-A HPLCMT-NORTH ZN,   1.3000    
 Heating Sizing Factor Information, Zone SP-PERIMETER_TOP_ZN_4 SYS-6 FLR-4 SCH-A HPLCMT-WEST ZN,   1.3000    
! <Cooling Sizing Factor Information>, Sizing Factor ID, Value
 Cooling Sizing Factor Information, Global,   1.1000    
 Cooling Sizing Factor Information, Zone SP-BASEMENT SYS-6 FLR-1 SCH-A HPLCMT-NORTH ZN,   1.1000    
 Cooling Sizing Factor Information, Zone SP-CORE_BOTTOM SYS-6 FLR-2 SCH-A HPLCMT-CORE ZN,   1.1000    
 Cooling Sizing Factor Information, Zone SP-CORE_MID SYS-6 FLR-3 SCH-A HPLCMT-CORE ZN,   1.1000    
 Cooling Sizing Factor Information, Zone SP-CORE_TOP SYS-6 FLR-4 SCH-A HPLCMT-CORE ZN,   1.1000    
 Cooling Sizing Factor Information, Zone SP-DATACENTER_BASEMENT_ZN_6 SYS-6 FLR-1 SCH-A HPLCMT-WEST ZN,   1.1000    
 Cooling Sizing Factor Information, Zone SP-DATACENTER_BOT_ZN_6 SYS-6 FLR-2 SCH-A HPLCMT-CORE ZN,   1.1000    
 Cooling Sizing Factor Information, Zone SP-DATACENTER_MID_ZN_6 SYS-6 FLR-3 SCH-A HPLCMT-CORE ZN,   1.1000    
 Cooling Sizing Factor Information, Zone SP-DATACENTER_TOP_ZN_6 SYS-6 FLR-4 SCH-A HPLCMT-CORE ZN,   1.1000    
 Cooling Sizing Factor Information, Zone SP-PERIMETER_BOT_ZN_1 SYS-6 FLR-2 SCH-A HPLCMT-SOUTH ZN,   1.1000    
 Cooling Sizing Factor Information, Zone SP-PERIMETER_BOT_ZN_2 SYS-6 FLR-2 SCH-A HPLCMT-EAST ZN,   1.1000    
 Cooling Sizing Factor Information, Zone SP-PERIMETER_BOT_ZN_3 SYS-6 FLR-2 SCH-A HPLCMT-NORTH ZN,   1.1000    
 Cooling Sizing Factor Information, Zone SP-PERIMETER_BOT_ZN_4 SYS-6 FLR-2 SCH-A HPLCMT-WEST ZN,   1.1000    
 Cooling Sizing Factor Information, Zone SP-PERIMETER_MID_ZN_1 SYS-6 FLR-3 SCH-A HPLCMT-SOUTH ZN,   1.1000    
 Cooling Sizing Factor Information, Zone SP-PERIMETER_MID_ZN_2 SYS-6 FLR-3 SCH-A HPLCMT-EAST ZN,   1.1000    
 Cooling Sizing Factor Information, Zone SP-PERIMETER_MID_ZN_3 SYS-6 FLR-3 SCH-A HPLCMT-NORTH ZN,   1.1000    
 Cooling Sizing Factor Information, Zone SP-PERIMETER_MID_ZN_4 SYS-6 FLR-3 SCH-A HPLCMT-WEST ZN,   1.1000    
 Cooling Sizing Factor Information, Zone SP-PERIMETER_TOP_ZN_1 SYS-6 FLR-4 SCH-A HPLCMT-SOUTH ZN,   1.1000    
 Cooling Sizing Factor Information, Zone SP-PERIMETER_TOP_ZN_2 SYS-6 FLR-4 SCH-A HPLCMT-EAST ZN,   1.1000    
 Cooling Sizing Factor Information, Zone SP-PERIMETER_TOP_ZN_3 SYS-6 FLR-4 SCH-A HPLCMT-NORTH ZN,   1.1000    
 Cooling Sizing Factor Information, Zone SP-PERIMETER_TOP_ZN_4 SYS-6 FLR-4 SCH-A HPLCMT-WEST ZN,   1.1000    
! <Zone Sizing Information>, Zone Name, Load Type, Calc Des Load {W}, User Des Load {W}, Calc Des Air Flow Rate {m3/s}, User Des Air Flow Rate {m3/s}, Design Day Name, Date/Time of Peak, Temperature at Peak {C}, Humidity Ratio at Peak {kgWater/kgDryAir}, Floor Area {m2}, # Occupants, Calc Outdoor Air Flow Rate {m3/s}, Calc DOAS Heat Addition Rate {W}
 Zone Sizing Information, SP-BASEMENT SYS-6 FLR-1 SCH-A HPLCMT-NORTH ZN, Cooling, 31246.84054, 34371.52460, 2.31223, 2.54345, VANCOUVER INTL AP ANN CLG .4% CONDNS DB=>MWB, 7/21 17:00:00, 24.03600, 1.06257E-002, 2779.42662, 13.76205, 0.84717, 0.00000
 Zone Sizing Information, SP-BASEMENT SYS-6 FLR-1 SCH-A HPLCMT-NORTH ZN, Heating, 0.00000, 0.00000, 0.00000, 0.84717, VANCOUVER INTL AP ANN HTG 99.6% CONDNS DB, , -6.10000, 2.25331E-003, 2779.42662, 13.76205, 0.84717, 0.00000
 Zone Sizing Information, SP-CORE_BOTTOM SYS-6 FLR-2 SCH-A HPLCMT-CORE ZN, Cooling, 46923.09224, 51615.40147, 3.47269, 3.81996, VANCOUVER INTL AP ANN CLG .4% CONDNS DB=>MWB, 7/21 17:00:00, 24.03600, 1.06257E-002, 2496.12046, 124.93628, 1.07782, 0.00000
 Zone Sizing Information, SP-CORE_BOTTOM SYS-6 FLR-2 SCH-A HPLCMT-CORE ZN, Heating, 0.00000, 0.00000, 0.00000, 1.07782, VANCOUVER INTL AP ANN HTG 99.6% CONDNS DB, , -6.10000, 2.25331E-003, 2496.12046, 124.93628, 1.07782, 0.00000
 Zone Sizing Information, SP-CORE_MID SYS-6 FLR-3 SCH-A HPLCMT-CORE ZN, Cooling, 513521.30306, 564873.43337, 38.00439, 41.80483, VANCOUVER INTL AP ANN CLG .4% CONDNS DB=>MWB, 7/21 15:50:00, 24.72000, 1.06257E-002, 2496.12046, 124.93628, 10.77825, 0.00000
 Zone Sizing Information, SP-CORE_MID SYS-6 FLR-3 SCH-A HPLCMT-CORE ZN, Heating, 0.00000, 0.00000, 0.00000, 10.77825, VANCOUVER INTL AP ANN HTG 99.6% CONDNS DB, , -6.10000, 2.25331E-003, 2496.12046, 124.93628, 10.77825, 0.00000
 Zone Sizing Information, SP-CORE_TOP SYS-6 FLR-4 SCH-A HPLCMT-CORE ZN, Cooling, 53411.68217, 58752.85039, 3.95290, 4.34818, VANCOUVER INTL AP ANN CLG .4% CONDNS DB=>MWB, 7/21 17:00:00, 24.03600, 1.06257E-002, 2496.12046, 124.93628, 1.07782, 0.00000
 Zone Sizing Information, SP-CORE_TOP SYS-6 FLR-4 SCH-A HPLCMT-CORE ZN, Heating, 36439.53035, 47371.38945, 1.38376, 1.79889, VANCOUVER INTL AP ANN HTG 99.6% CONDNS DB, 12/21 08:00:00, -6.10000, 2.25331E-003, 2496.12046, 124.93628, 1.07782, 0.00000
 Zone Sizing Information, SP-DATACENTER_BASEMENT_ZN_6 SYS-6 FLR-1 SCH-A HPLCMT-WEST ZN, Cooling, 14002.67659, 15402.94425, 1.03633, 1.13996, VANCOUVER INTL AP ANN CLG .4% CONDNS DB=>MWB, 7/21 17:00:00, 24.03600, 1.06257E-002, 783.67941, 39.22487, 0.33839, 0.00000
 Zone Sizing Information, SP-DATACENTER_BASEMENT_ZN_6 SYS-6 FLR-1 SCH-A HPLCMT-WEST ZN, Heating, 0.00000, 0.00000, 0.00000, 0.33839, VANCOUVER INTL AP ANN HTG 99.6% CONDNS DB, , -6.10000, 2.25331E-003, 783.67941, 39.22487, 0.33839, 0.00000
 Zone Sizing Information, SP-DATACENTER_BOT_ZN_6 SYS-6 FLR-2 SCH-A HPLCMT-CORE ZN, Cooling, 3167.00779, 3483.70856, 0.23436, 0.25779, VANCOUVER INTL AP ANN CLG .4% CONDNS DB=>MWB, 7/21 19:20:00, 21.85733, 1.06257E-002, 36.20274, 1.81203, 1.56323E-002, 0.00000
 Zone Sizing Information, SP-DATACENTER_BOT_ZN_6 SYS-6 FLR-2 SCH-A HPLCMT-CORE ZN, Heating, 0.00000, 0.00000, 0.00000, 1.56323E-002, VANCOUVER INTL AP ANN HTG 99.6% CONDNS DB, , -6.10000, 2.25331E-003, 36.20274, 1.81203, 1.56323E-002, 0.00000
 Zone Sizing Information, SP-DATACENTER_MID_ZN_6 SYS-6 FLR-3 SCH-A HPLCMT-CORE ZN, Cooling, 34531.52536, 37984.67789, 2.55533, 2.81086, VANCOUVER INTL AP ANN CLG .4% CONDNS DB=>MWB, 7/21 19:20:00, 21.85733, 1.06257E-002, 36.20274, 1.81203, 0.15632, 0.00000
 Zone Sizing Information, SP-DATACENTER_MID_ZN_6 SYS-6 FLR-3 SCH-A HPLCMT-CORE ZN, Heating, 874.64341, 1137.03643, 3.35834E-002, 0.15632, VANCOUVER INTL AP ANN HTG 99.6% CONDNS DB, 12/21 08:00:00, -6.10000, 2.25331E-003, 36.20274, 1.81203, 0.15632, 0.00000
 Zone Sizing Information, SP-DATACENTER_TOP_ZN_6 SYS-6 FLR-4 SCH-A HPLCMT-CORE ZN, Cooling, 3531.59923, 3884.75915, 0.26134, 0.28747, VANCOUVER INTL AP ANN CLG .4% CONDNS DB=>MWB, 7/21 19:20:00, 21.85733, 1.06257E-002, 36.20274, 1.81203, 1.56323E-002, 0.00000
 Zone Sizing Information, SP-DATACENTER_TOP_ZN_6 SYS-6 FLR-4 SCH-A HPLCMT-CORE ZN, Heating, 1952.75710, 2538.58424, 7.52046E-002, 9.77660E-002, VANCOUVER INTL AP ANN HTG 99.6% CONDNS DB, 12/21 08:00:00, -6.10000, 2.25331E-003, 36.20274, 1.81203, 1.56323E-002, 0.00000
 Zone Sizing Information, SP-PERIMETER_BOT_ZN_1 SYS-6 FLR-2 SCH-A HPLCMT-SOUTH ZN, Cooling, 16891.16955, 18580.28651, 1.25003, 1.37503, VANCOUVER INTL AP ANN CLG .4% CONDNS DB=>MWB, 7/21 13:10:00, 24.78333, 1.06257E-002, 313.41969, 15.68734, 0.13533, 0.00000
 Zone Sizing Information, SP-PERIMETER_BOT_ZN_1 SYS-6 FLR-2 SCH-A HPLCMT-SOUTH ZN, Heating, 3578.27505, 4651.75756, 0.13513, 0.17567, VANCOUVER INTL AP ANN HTG 99.6% CONDNS DB, 12/21 08:00:00, -6.10000, 2.25331E-003, 313.41969, 15.68734, 0.13533, 0.00000
 Zone Sizing Information, SP-PERIMETER_BOT_ZN_2 SYS-6 FLR-2 SCH-A HPLCMT-EAST ZN, Cooling, 17606.70608, 19367.37669, 1.30293, 1.43323, VANCOUVER INTL AP ANN CLG .4% CONDNS DB=>MWB, 7/21 09:00:00, 20.92000, 1.06257E-002, 201.97515, 10.10930, 8.72129E-002, 0.00000
 Zone Sizing Information, SP-PERIMETER_BOT_ZN_2 SYS-6 FLR-2 SCH-A HPLCMT-EAST ZN, Heating, 2423.32936, 3150.32816, 9.16400E-002, 0.11913, VANCOUVER INTL AP ANN HTG 99.6% CONDNS DB, 12/21 08:00:00, -6.10000, 2.25331E-003, 201.97515, 10.10930, 8.72129E-002, 0.00000
 Zone Sizing Information, SP-PERIMETER_BOT_ZN_3 SYS-6 FLR-2 SCH-A HPLCMT-NORTH ZN, Cooling, 9002.02714, 9902.22985, 0.66622, 0.73284, VANCOUVER INTL AP ANN CLG .4% CONDNS DB=>MWB, 7/21 15:40:00, 24.79600, 1.06257E-002, 313.41284, 15.68700, 0.13533, 0.00000
 Zone Sizing Information, SP-PERIMETER_BOT_ZN_3 SYS-6 FLR-2 SCH-A HPLCMT-NORTH ZN, Heating, 3578.28852, 4651.77508, 0.13513, 0.17567, VANCOUVER INTL AP ANN HTG 99.6% CONDNS DB, 12/21 08:00:00, -6.10000, 2.25331E-003, 313.41284, 15.68700, 0.13533, 0.00000
 Zone Sizing Information, SP-PERIMETER_BOT_ZN_4 SYS-6 FLR-2 SCH-A HPLCMT-WEST ZN, Cooling, 18827.02981, 20709.73279, 1.39333, 1.53266, VANCOUVER INTL AP ANN CLG .4% CONDNS DB=>MWB, 7/21 17:20:00, 23.78267, 1.06257E-002, 201.97515, 10.10930, 8.72129E-002, 0.00000
 Zone Sizing Information, SP-PERIMETER_BOT_ZN_4 SYS-6 FLR-2 SCH-A HPLCMT-WEST ZN, Heating, 2505.61875, 3257.30438, 9.48282E-002, 0.12328, VANCOUVER INTL AP ANN HTG 99.6% CONDNS DB, 12/21 08:00:00, -6.10000, 2.25331E-003, 201.97515, 10.10930, 8.72129E-002, 0.00000
 Zone Sizing Information, SP-PERIMETER_MID_ZN_1 SYS-6 FLR-3 SCH-A HPLCMT-SOUTH ZN, Cooling, 210623.32273, 231685.65501, 15.58718, 17.14590, VANCOUVER INTL AP ANN CLG .4% CONDNS DB=>MWB, 7/21 13:20:00, 24.84667, 1.06257E-002, 313.41969, 15.68734, 1.35335, 0.00000
 Zone Sizing Information, SP-PERIMETER_MID_ZN_1 SYS-6 FLR-3 SCH-A HPLCMT-SOUTH ZN, Heating, 60575.40463, 78748.02602, 2.31022, 3.00328, VANCOUVER INTL AP ANN HTG 99.6% CONDNS DB, 12/21 08:00:00, -6.10000, 2.25331E-003, 313.41969, 15.68734, 1.35335, 0.00000
 Zone Sizing Information, SP-PERIMETER_MID_ZN_2 SYS-6 FLR-3 SCH-A HPLCMT-EAST ZN, Cooling, 218664.75032, 240531.22535, 16.18206, 17.80027, VANCOUVER INTL AP ANN CLG .4% CONDNS DB=>MWB, 7/21 09:10:00, 21.13533, 1.06257E-002, 201.97515, 10.10930, 0.87213, 0.00000
 Zone Sizing Information, SP-PERIMETER_MID_ZN_2 SYS-6 FLR-3 SCH-A HPLCMT-EAST ZN, Heating, 41494.95159, 53943.43707, 1.58386, 2.05902, VANCOUVER INTL AP ANN HTG 99.6% CONDNS DB, 12/21 08:00:00, -6.10000, 2.25331E-003, 201.97515, 10.10930, 0.87213, 0.00000
 Zone Sizing Information, SP-PERIMETER_MID_ZN_3 SYS-6 FLR-3 SCH-A HPLCMT-NORTH ZN, Cooling, 99981.57076, 109979.72784, 7.39944, 8.13938, VANCOUVER INTL AP ANN CLG .4% CONDNS DB=>MWB, 7/21 15:40:00, 24.79600, 1.06257E-002, 313.41284, 15.68700, 1.35332, 0.00000
 Zone Sizing Information, SP-PERIMETER_MID_ZN_3 SYS-6 FLR-3 SCH-A HPLCMT-NORTH ZN, Heating, 60575.66765, 78748.36794, 2.31023, 3.00330, VANCOUVER INTL AP ANN HTG 99.6% CONDNS DB, 12/21 08:00:00, -6.10000, 2.25331E-003, 313.41284, 15.68700, 1.35332, 0.00000
 Zone Sizing Information, SP-PERIMETER_MID_ZN_4 SYS-6 FLR-3 SCH-A HPLCMT-WEST ZN, Cooling, 233123.49542, 256435.84496, 17.25278, 18.97805, VANCOUVER INTL AP ANN CLG .4% CONDNS DB=>MWB, 7/21 17:40:00, 23.52933, 1.06257E-002, 201.97515, 10.10930, 0.87213, 0.00000
 Zone Sizing Information, SP-PERIMETER_MID_ZN_4 SYS-6 FLR-3 SCH-A HPLCMT-WEST ZN, Heating, 44324.06944, 57621.29028, 1.69322, 2.20119, VANCOUVER INTL AP ANN HTG 99.6% CONDNS DB, 12/21 08:00:00, -6.10000, 2.25331E-003, 201.97515, 10.10930, 0.87213, 0.00000
 Zone Sizing Information, SP-PERIMETER_TOP_ZN_1 SYS-6 FLR-4 SCH-A HPLCMT-SOUTH ZN, Cooling, 20873.62113, 22960.98325, 1.54475, 1.69923, VANCOUVER INTL AP ANN CLG .4% CONDNS DB=>MWB, 7/21 13:30:00, 24.91000, 1.06257E-002, 313.41969, 15.68734, 0.13533, 0.00000
 Zone Sizing Information, SP-PERIMETER_TOP_ZN_1 SYS-6 FLR-4 SCH-A HPLCMT-SOUTH ZN, Heating, 13620.38307, 17706.49799, 0.52382, 0.68096, VANCOUVER INTL AP ANN HTG 99.6% CONDNS DB, 12/21 08:00:00, -6.10000, 2.25331E-003, 313.41969, 15.68734, 0.13533, 0.00000
 Zone Sizing Information, SP-PERIMETER_TOP_ZN_2 SYS-6 FLR-4 SCH-A HPLCMT-EAST ZN, Cooling, 21274.16660, 23401.58326, 1.57440, 1.73184, VANCOUVER INTL AP ANN CLG .4% CONDNS DB=>MWB, 7/21 09:20:00, 21.35067, 1.06257E-002, 201.97515, 10.10930, 8.72129E-002, 0.00000
 Zone Sizing Information, SP-PERIMETER_TOP_ZN_2 SYS-6 FLR-4 SCH-A HPLCMT-EAST ZN, Heating, 9022.51235, 11729.26605, 0.34706, 0.45118, VANCOUVER INTL AP ANN HTG 99.6% CONDNS DB, 12/21 08:00:00, -6.10000, 2.25331E-003, 201.97515, 10.10930, 8.72129E-002, 0.00000
 Zone Sizing Information, SP-PERIMETER_TOP_ZN_3 SYS-6 FLR-4 SCH-A HPLCMT-NORTH ZN, Cooling, 10169.13072, 11186.04379, 0.75260, 0.82786, VANCOUVER INTL AP ANN CLG .4% CONDNS DB=>MWB, 7/21 16:00:00, 24.64400, 1.06257E-002, 313.41284, 15.68700, 0.13533, 0.00000
 Zone Sizing Information, SP-PERIMETER_TOP_ZN_3 SYS-6 FLR-4 SCH-A HPLCMT-NORTH ZN, Heating, 13620.27675, 17706.35977, 0.52381, 0.68096, VANCOUVER INTL AP ANN HTG 99.6% CONDNS DB, 12/21 08:00:00, -6.10000, 2.25331E-003, 313.41284, 15.68700, 0.13533, 0.00000
 Zone Sizing Information, SP-PERIMETER_TOP_ZN_4 SYS-6 FLR-4 SCH-A HPLCMT-WEST ZN, Cooling, 23520.30188, 25872.33207, 1.74068, 1.91474, VANCOUVER INTL AP ANN CLG .4% CONDNS DB=>MWB, 7/21 17:40:00, 23.52933, 1.06257E-002, 201.97515, 10.10930, 8.72129E-002, 0.00000
 Zone Sizing Information, SP-PERIMETER_TOP_ZN_4 SYS-6 FLR-4 SCH-A HPLCMT-WEST ZN, Heating, 8919.10467, 11594.83608, 0.34305, 0.44597, VANCOUVER INTL AP ANN HTG 99.6% CONDNS DB, 12/21 08:00:00, -6.10000, 2.25331E-003, 201.97515, 10.10930, 8.72129E-002, 0.00000
! <System Sizing Information>, System Name, Load Type, Peak Load Kind, User Design Capacity, Calc Des Air Flow Rate [m3/s], User Des Air Flow Rate [m3/s], Design Day Name, Date/Time of Peak
 System Sizing Information, VAV WITH REHEAT, Cooling, Sensible, 49057.34, 3.68341, 3.68341, VANCOUVER INTL AP ANN CLG .4% CONDNS DB=>MWB, 7/21 00:00:00
 System Sizing Information, VAV WITH REHEAT, Heating, Sensible, 27532.58, 1.18556, 1.18556, VANCOUVER INTL AP ANN HTG 99.6% CONDNS DB, 12/21 00:10:00
 System Sizing Information, VAV WITH REHEAT 1, Cooling, Sensible, 121036.83, 9.15151, 9.15151, VANCOUVER INTL AP ANN CLG .4% CONDNS DB=>MWB, 7/21 00:00:00
 System Sizing Information, VAV WITH REHEAT 1, Heating, Sensible, 34142.33, 1.68720, 1.68720, VANCOUVER INTL AP ANN HTG 99.6% CONDNS DB, 12/21 08:00:00
 System Sizing Information, VAV WITH REHEAT 2, Cooling, Sensible, 1416633.39, 106.67929, 106.67929, VANCOUVER INTL AP ANN CLG .4% CONDNS DB=>MWB, 7/21 00:00:00
 System Sizing Information, VAV WITH REHEAT 2, Heating, Sensible, 295340.30, 21.20136, 21.20136, VANCOUVER INTL AP ANN HTG 99.6% CONDNS DB, 12/21 07:40:00
 System Sizing Information, VAV WITH REHEAT 3, Cooling, Sensible, 143136.38, 10.80933, 10.80933, VANCOUVER INTL AP ANN CLG .4% CONDNS DB=>MWB, 7/21 00:00:00
 System Sizing Information, VAV WITH REHEAT 3, Heating, Sensible, 8021.76, 4.15572, 4.15572, VANCOUVER INTL AP ANN HTG 99.6% CONDNS DB, 12/21 22:00:00
! <Component Sizing Information>, Component Type, Component Name, Input Field Description, Value
 Component Sizing Information, AirTerminal:SingleDuct:VAV:Reheat, AIR TERMINAL SINGLE DUCT VAV REHEAT 1, Design Size Maximum Air Flow Rate [m3/s], 2.54345
 Component Sizing Information, AirTerminal:SingleDuct:VAV:Reheat, AIR TERMINAL SINGLE DUCT VAV REHEAT 1, Design Size Constant Minimum Air Flow Fraction, 0.83270
 Component Sizing Information, AirTerminal:SingleDuct:VAV:Reheat, AIR TERMINAL SINGLE DUCT VAV REHEAT 1, User-Specified Constant Minimum Air Flow Fraction, 0.30000
 Component Sizing Information, AirTerminal:SingleDuct:VAV:Reheat, AIR TERMINAL SINGLE DUCT VAV REHEAT 1, Design Size Minimum Air Flow Rate [m3/s], 0.76304
 Component Sizing Information, AirTerminal:SingleDuct:VAV:Reheat, AIR TERMINAL SINGLE DUCT VAV REHEAT 1, Design Size Maximum Flow per Zone Floor Area during Reheat [m3/s-m2], 2.74530E-004
 Component Sizing Information, AirTerminal:SingleDuct:VAV:Reheat, AIR TERMINAL SINGLE DUCT VAV REHEAT 1, Design Size Maximum Flow Fraction during Reheat [], 0.30000
 Component Sizing Information, AirTerminal:SingleDuct:VAV:Reheat, AIR TERMINAL SINGLE DUCT VAV REHEAT 1, Design Size Maximum Reheat Water Flow Rate [m3/s], 1.26611E-004
 Component Sizing Information, AirTerminal:SingleDuct:VAV:Reheat, AIR TERMINAL SINGLE DUCT VAV REHEAT 1, Design Size Reheat Coil Sizing Air Volume Flow Rate [m3/s], 0.76304
 Component Sizing Information, AirTerminal:SingleDuct:VAV:Reheat, AIR TERMINAL SINGLE DUCT VAV REHEAT 1, Design Size Reheat Coil Sizing Inlet Air Temperature [C], 13.10000
 Component Sizing Information, AirTerminal:SingleDuct:VAV:Reheat, AIR TERMINAL SINGLE DUCT VAV REHEAT 1, Design Size Reheat Coil Sizing Inlet Air Humidity Ratio [kgWater/kgDryAir], 8.00000E-003
 Component Sizing Information, Coil:Heating:Water, COIL HEATING WATER 2, Design Size Rated Capacity [W], 8477.00121
 Component Sizing Information, Coil:Heating:Water, COIL HEATING WATER 2, Design Size Maximum Water Flow Rate [m3/s], 1.26611E-004
 Component Sizing Information, Coil:Heating:Water, COIL HEATING WATER 2, Design Size U-Factor Times Area Value [W/K], 152.84315
! <Water Heating Coil Capacity Information>,Component Type,Name,Nominal Total Capacity {W}
Water Heating Coil Capacity Information,Coil:Heating:Water,COIL HEATING WATER 2,7948.02
 Component Sizing Information, ZoneHVAC:Baseboard:Convective:Water, ZONE HVAC BASEBOARD CONVECTIVE WATER 1, Design Size Maximum Water Flow Rate [m3/s], 0.00000
 Component Sizing Information, ZoneHVAC:Baseboard:Convective:Water, ZONE HVAC BASEBOARD CONVECTIVE WATER 1, Design Size U-Factor Times Area Value [W/K], 0.00000
 Component Sizing Information, AirTerminal:SingleDuct:VAV:Reheat, AIR TERMINAL SINGLE DUCT VAV REHEAT 3, Design Size Maximum Air Flow Rate [m3/s], 3.81996
 Component Sizing Information, AirTerminal:SingleDuct:VAV:Reheat, AIR TERMINAL SINGLE DUCT VAV REHEAT 3, Design Size Constant Minimum Air Flow Fraction, 0.49792
 Component Sizing Information, AirTerminal:SingleDuct:VAV:Reheat, AIR TERMINAL SINGLE DUCT VAV REHEAT 3, User-Specified Constant Minimum Air Flow Fraction, 0.30000
 Component Sizing Information, AirTerminal:SingleDuct:VAV:Reheat, AIR TERMINAL SINGLE DUCT VAV REHEAT 3, Design Size Minimum Air Flow Rate [m3/s], 1.14599
 Component Sizing Information, AirTerminal:SingleDuct:VAV:Reheat, AIR TERMINAL SINGLE DUCT VAV REHEAT 3, Design Size Maximum Flow per Zone Floor Area during Reheat [m3/s-m2], 4.59108E-004
 Component Sizing Information, AirTerminal:SingleDuct:VAV:Reheat, AIR TERMINAL SINGLE DUCT VAV REHEAT 3, Design Size Maximum Flow Fraction during Reheat [], 0.30000
 Component Sizing Information, AirTerminal:SingleDuct:VAV:Reheat, AIR TERMINAL SINGLE DUCT VAV REHEAT 3, Design Size Maximum Reheat Water Flow Rate [m3/s], 1.90154E-004
 Component Sizing Information, AirTerminal:SingleDuct:VAV:Reheat, AIR TERMINAL SINGLE DUCT VAV REHEAT 3, Design Size Reheat Coil Sizing Air Volume Flow Rate [m3/s], 1.14599
 Component Sizing Information, AirTerminal:SingleDuct:VAV:Reheat, AIR TERMINAL SINGLE DUCT VAV REHEAT 3, Design Size Reheat Coil Sizing Inlet Air Temperature [C], 13.10000
 Component Sizing Information, AirTerminal:SingleDuct:VAV:Reheat, AIR TERMINAL SINGLE DUCT VAV REHEAT 3, Design Size Reheat Coil Sizing Inlet Air Humidity Ratio [kgWater/kgDryAir], 8.00000E-003
 Component Sizing Information, Coil:Heating:Water, COIL HEATING WATER 5, Design Size Rated Capacity [W], 12731.44197
 Component Sizing Information, Coil:Heating:Water, COIL HEATING WATER 5, Design Size Maximum Water Flow Rate [m3/s], 1.90154E-004
 Component Sizing Information, Coil:Heating:Water, COIL HEATING WATER 5, Design Size U-Factor Times Area Value [W/K], 229.55213
Water Heating Coil Capacity Information,Coil:Heating:Water,COIL HEATING WATER 5,11936.97
 Component Sizing Information, ZoneHVAC:Baseboard:Convective:Water, ZONE HVAC BASEBOARD CONVECTIVE WATER 3, Design Size Maximum Water Flow Rate [m3/s], 0.00000
 Component Sizing Information, ZoneHVAC:Baseboard:Convective:Water, ZONE HVAC BASEBOARD CONVECTIVE WATER 3, Design Size U-Factor Times Area Value [W/K], 0.00000
 Component Sizing Information, AirTerminal:SingleDuct:VAV:Reheat, AIR TERMINAL SINGLE DUCT VAV REHEAT 9, Design Size Maximum Air Flow Rate [m3/s], 41.80483
 Component Sizing Information, AirTerminal:SingleDuct:VAV:Reheat, AIR TERMINAL SINGLE DUCT VAV REHEAT 9, Design Size Constant Minimum Air Flow Fraction, 0.45498
 Component Sizing Information, AirTerminal:SingleDuct:VAV:Reheat, AIR TERMINAL SINGLE DUCT VAV REHEAT 9, User-Specified Constant Minimum Air Flow Fraction, 0.30000
 Component Sizing Information, AirTerminal:SingleDuct:VAV:Reheat, AIR TERMINAL SINGLE DUCT VAV REHEAT 9, Design Size Minimum Air Flow Rate [m3/s], 12.54145
 Component Sizing Information, AirTerminal:SingleDuct:VAV:Reheat, AIR TERMINAL SINGLE DUCT VAV REHEAT 9, Design Size Maximum Flow per Zone Floor Area during Reheat [m3/s-m2], 5.02438E-004
 Component Sizing Information, AirTerminal:SingleDuct:VAV:Reheat, AIR TERMINAL SINGLE DUCT VAV REHEAT 9, Design Size Maximum Flow Fraction during Reheat [], 0.30000
 Component Sizing Information, AirTerminal:SingleDuct:VAV:Reheat, AIR TERMINAL SINGLE DUCT VAV REHEAT 9, Design Size Maximum Reheat Water Flow Rate [m3/s], 2.08101E-003
 Component Sizing Information, AirTerminal:SingleDuct:VAV:Reheat, AIR TERMINAL SINGLE DUCT VAV REHEAT 9, Design Size Reheat Coil Sizing Air Volume Flow Rate [m3/s], 12.54145
 Component Sizing Information, AirTerminal:SingleDuct:VAV:Reheat, AIR TERMINAL SINGLE DUCT VAV REHEAT 9, Design Size Reheat Coil Sizing Inlet Air Temperature [C], 13.10000
 Component Sizing Information, AirTerminal:SingleDuct:VAV:Reheat, AIR TERMINAL SINGLE DUCT VAV REHEAT 9, Design Size Reheat Coil Sizing Inlet Air Humidity Ratio [kgWater/kgDryAir], 8.00000E-003
 Component Sizing Information, Coil:Heating:Water, COIL HEATING WATER 12, Design Size Rated Capacity [W], 139330.21932
 Component Sizing Information, Coil:Heating:Water, COIL HEATING WATER 12, Design Size Maximum Water Flow Rate [m3/s], 2.08101E-003
 Component Sizing Information, Coil:Heating:Water, COIL HEATING WATER 12, Design Size U-Factor Times Area Value [W/K], 2512.17020
Water Heating Coil Capacity Information,Coil:Heating:Water,COIL HEATING WATER 12,130635.70
 Component Sizing Information, ZoneHVAC:Baseboard:Convective:Water, ZONE HVAC BASEBOARD CONVECTIVE WATER 9, Design Size Maximum Water Flow Rate [m3/s], 0.00000
 Component Sizing Information, ZoneHVAC:Baseboard:Convective:Water, ZONE HVAC BASEBOARD CONVECTIVE WATER 9, Design Size U-Factor Times Area Value [W/K], 0.00000
 Component Sizing Information, AirTerminal:SingleDuct:VAV:Reheat, AIR TERMINAL SINGLE DUCT VAV REHEAT 15, Design Size Maximum Air Flow Rate [m3/s], 4.34818
 Component Sizing Information, AirTerminal:SingleDuct:VAV:Reheat, AIR TERMINAL SINGLE DUCT VAV REHEAT 15, Design Size Constant Minimum Air Flow Fraction, 0.43743
 Component Sizing Information, AirTerminal:SingleDuct:VAV:Reheat, AIR TERMINAL SINGLE DUCT VAV REHEAT 15, User-Specified Constant Minimum Air Flow Fraction, 0.30000
 Component Sizing Information, AirTerminal:SingleDuct:VAV:Reheat, AIR TERMINAL SINGLE DUCT VAV REHEAT 15, Design Size Minimum Air Flow Rate [m3/s], 1.30446
 Component Sizing Information, AirTerminal:SingleDuct:VAV:Reheat, AIR TERMINAL SINGLE DUCT VAV REHEAT 15, Design Size Maximum Flow per Zone Floor Area during Reheat [m3/s-m2], 5.22593E-004
 Component Sizing Information, AirTerminal:SingleDuct:VAV:Reheat, AIR TERMINAL SINGLE DUCT VAV REHEAT 15, Design Size Maximum Flow Fraction during Reheat [], 0.30000
 Component Sizing Information, AirTerminal:SingleDuct:VAV:Reheat, AIR TERMINAL SINGLE DUCT VAV REHEAT 15, Design Size Maximum Reheat Water Flow Rate [m3/s], 1.01891E-003
 Component Sizing Information, AirTerminal:SingleDuct:VAV:Reheat, AIR TERMINAL SINGLE DUCT VAV REHEAT 15, Design Size Reheat Coil Sizing Air Volume Flow Rate [m3/s], 1.79889
 Component Sizing Information, AirTerminal:SingleDuct:VAV:Reheat, AIR TERMINAL SINGLE DUCT VAV REHEAT 15, Design Size Reheat Coil Sizing Inlet Air Temperature [C], 13.10000
 Component Sizing Information, AirTerminal:SingleDuct:VAV:Reheat, AIR TERMINAL SINGLE DUCT VAV REHEAT 15, Design Size Reheat Coil Sizing Inlet Air Humidity Ratio [kgWater/kgDryAir], 8.00000E-003
 Component Sizing Information, Coil:Heating:Water, COIL HEATING WATER 19, Design Size Rated Capacity [W], 68218.98704
 Component Sizing Information, Coil:Heating:Water, COIL HEATING WATER 19, Design Size Maximum Water Flow Rate [m3/s], 1.01891E-003
 Component Sizing Information, Coil:Heating:Water, COIL HEATING WATER 19, Design Size U-Factor Times Area Value [W/K], 1557.64179
Water Heating Coil Capacity Information,Coil:Heating:Water,COIL HEATING WATER 19,58449.38
 Component Sizing Information, ZoneHVAC:Baseboard:Convective:Water, ZONE HVAC BASEBOARD CONVECTIVE WATER 15, Design Size Maximum Water Flow Rate [m3/s], 7.07530E-004
 Component Sizing Information, ZoneHVAC:Baseboard:Convective:Water, ZONE HVAC BASEBOARD CONVECTIVE WATER 15, Design Size U-Factor Times Area Value [W/K], 1441.24785
 Component Sizing Information, AirTerminal:SingleDuct:VAV:Reheat, AIR TERMINAL SINGLE DUCT VAV REHEAT 2, Design Size Maximum Air Flow Rate [m3/s], 1.13996
 Component Sizing Information, AirTerminal:SingleDuct:VAV:Reheat, AIR TERMINAL SINGLE DUCT VAV REHEAT 2, Design Size Constant Minimum Air Flow Fraction, 0.52385
 Component Sizing Information, AirTerminal:SingleDuct:VAV:Reheat, AIR TERMINAL SINGLE DUCT VAV REHEAT 2, User-Specified Constant Minimum Air Flow Fraction, 0.30000
 Component Sizing Information, AirTerminal:SingleDuct:VAV:Reheat, AIR TERMINAL SINGLE DUCT VAV REHEAT 2, Design Size Minimum Air Flow Rate [m3/s], 0.34199
 Component Sizing Information, AirTerminal:SingleDuct:VAV:Reheat, AIR TERMINAL SINGLE DUCT VAV REHEAT 2, Design Size Maximum Flow per Zone Floor Area during Reheat [m3/s-m2], 4.36387E-004
 Component Sizing Information, AirTerminal:SingleDuct:VAV:Reheat, AIR TERMINAL SINGLE DUCT VAV REHEAT 2, Design Size Maximum Flow Fraction during Reheat [], 0.30000
 Component Sizing Information, AirTerminal:SingleDuct:VAV:Reheat, AIR TERMINAL SINGLE DUCT VAV REHEAT 2, Design Size Maximum Reheat Water Flow Rate [m3/s], 5.67462E-005
 Component Sizing Information, AirTerminal:SingleDuct:VAV:Reheat, AIR TERMINAL SINGLE DUCT VAV REHEAT 2, Design Size Reheat Coil Sizing Air Volume Flow Rate [m3/s], 0.34199
 Component Sizing Information, AirTerminal:SingleDuct:VAV:Reheat, AIR TERMINAL SINGLE DUCT VAV REHEAT 2, Design Size Reheat Coil Sizing Inlet Air Temperature [C], 13.10000
 Component Sizing Information, AirTerminal:SingleDuct:VAV:Reheat, AIR TERMINAL SINGLE DUCT VAV REHEAT 2, Design Size Reheat Coil Sizing Inlet Air Humidity Ratio [kgWater/kgDryAir], 8.00000E-003
 Component Sizing Information, Coil:Heating:Water, COIL HEATING WATER 3, Design Size Rated Capacity [W], 3799.33729
 Component Sizing Information, Coil:Heating:Water, COIL HEATING WATER 3, Design Size Maximum Water Flow Rate [m3/s], 5.67462E-005
 Component Sizing Information, Coil:Heating:Water, COIL HEATING WATER 3, Design Size U-Factor Times Area Value [W/K], 68.50332
Water Heating Coil Capacity Information,Coil:Heating:Water,COIL HEATING WATER 3,3562.25
 Component Sizing Information, ZoneHVAC:Baseboard:Convective:Water, ZONE HVAC BASEBOARD CONVECTIVE WATER 2, Design Size Maximum Water Flow Rate [m3/s], 0.00000
 Component Sizing Information, ZoneHVAC:Baseboard:Convective:Water, ZONE HVAC BASEBOARD CONVECTIVE WATER 2, Design Size U-Factor Times Area Value [W/K], 0.00000
 Component Sizing Information, AirTerminal:SingleDuct:VAV:Reheat, AIR TERMINAL SINGLE DUCT VAV REHEAT 4, Design Size Maximum Air Flow Rate [m3/s], 0.25779
 Component Sizing Information, AirTerminal:SingleDuct:VAV:Reheat, AIR TERMINAL SINGLE DUCT VAV REHEAT 4, Design Size Constant Minimum Air Flow Fraction, 0.10701
 Component Sizing Information, AirTerminal:SingleDuct:VAV:Reheat, AIR TERMINAL SINGLE DUCT VAV REHEAT 4, User-Specified Constant Minimum Air Flow Fraction, 0.30000
 Component Sizing Information, AirTerminal:SingleDuct:VAV:Reheat, AIR TERMINAL SINGLE DUCT VAV REHEAT 4, Design Size Minimum Air Flow Rate [m3/s], 7.73382E-002
 Component Sizing Information, AirTerminal:SingleDuct:VAV:Reheat, AIR TERMINAL SINGLE DUCT VAV REHEAT 4, Design Size Maximum Flow per Zone Floor Area during Reheat [m3/s-m2], 2.13625E-003
 Component Sizing Information, AirTerminal:SingleDuct:VAV:Reheat, AIR TERMINAL SINGLE DUCT VAV REHEAT 4, Design Size Maximum Flow Fraction during Reheat [], 0.30000
 Component Sizing Information, AirTerminal:SingleDuct:VAV:Reheat, AIR TERMINAL SINGLE DUCT VAV REHEAT 4, Design Size Maximum Reheat Water Flow Rate [m3/s], 1.28328E-005
 Component Sizing Information, AirTerminal:SingleDuct:VAV:Reheat, AIR TERMINAL SINGLE DUCT VAV REHEAT 4, Design Size Reheat Coil Sizing Air Volume Flow Rate [m3/s], 7.73382E-002
 Component Sizing Information, AirTerminal:SingleDuct:VAV:Reheat, AIR TERMINAL SINGLE DUCT VAV REHEAT 4, Design Size Reheat Coil Sizing Inlet Air Temperature [C], 13.10000
 Component Sizing Information, AirTerminal:SingleDuct:VAV:Reheat, AIR TERMINAL SINGLE DUCT VAV REHEAT 4, Design Size Reheat Coil Sizing Inlet Air Humidity Ratio [kgWater/kgDryAir], 8.00000E-003
 Component Sizing Information, Coil:Heating:Water, COIL HEATING WATER 6, Design Size Rated Capacity [W], 859.19523
 Component Sizing Information, Coil:Heating:Water, COIL HEATING WATER 6, Design Size Maximum Water Flow Rate [m3/s], 1.28328E-005
 Component Sizing Information, Coil:Heating:Water, COIL HEATING WATER 6, Design Size U-Factor Times Area Value [W/K], 15.49158
Water Heating Coil Capacity Information,Coil:Heating:Water,COIL HEATING WATER 6,805.58
 Component Sizing Information, ZoneHVAC:Baseboard:Convective:Water, ZONE HVAC BASEBOARD CONVECTIVE WATER 4, Design Size Maximum Water Flow Rate [m3/s], 0.00000
 Component Sizing Information, ZoneHVAC:Baseboard:Convective:Water, ZONE HVAC BASEBOARD CONVECTIVE WATER 4, Design Size U-Factor Times Area Value [W/K], 0.00000
 Component Sizing Information, AirTerminal:SingleDuct:VAV:Reheat, AIR TERMINAL SINGLE DUCT VAV REHEAT 10, Design Size Maximum Air Flow Rate [m3/s], 2.81086
 Component Sizing Information, AirTerminal:SingleDuct:VAV:Reheat, AIR TERMINAL SINGLE DUCT VAV REHEAT 10, Design Size Constant Minimum Air Flow Fraction, 9.81425E-002
 Component Sizing Information, AirTerminal:SingleDuct:VAV:Reheat, AIR TERMINAL SINGLE DUCT VAV REHEAT 10, User-Specified Constant Minimum Air Flow Fraction, 0.30000
 Component Sizing Information, AirTerminal:SingleDuct:VAV:Reheat, AIR TERMINAL SINGLE DUCT VAV REHEAT 10, Design Size Minimum Air Flow Rate [m3/s], 0.84326
 Component Sizing Information, AirTerminal:SingleDuct:VAV:Reheat, AIR TERMINAL SINGLE DUCT VAV REHEAT 10, Design Size Maximum Flow per Zone Floor Area during Reheat [m3/s-m2], 2.32927E-003
 Component Sizing Information, AirTerminal:SingleDuct:VAV:Reheat, AIR TERMINAL SINGLE DUCT VAV REHEAT 10, Design Size Maximum Flow Fraction during Reheat [], 0.30000
 Component Sizing Information, AirTerminal:SingleDuct:VAV:Reheat, AIR TERMINAL SINGLE DUCT VAV REHEAT 10, Design Size Maximum Reheat Water Flow Rate [m3/s], 1.59022E-004
 Component Sizing Information, AirTerminal:SingleDuct:VAV:Reheat, AIR TERMINAL SINGLE DUCT VAV REHEAT 10, Design Size Reheat Coil Sizing Air Volume Flow Rate [m3/s], 0.84326
 Component Sizing Information, AirTerminal:SingleDuct:VAV:Reheat, AIR TERMINAL SINGLE DUCT VAV REHEAT 10, Design Size Reheat Coil Sizing Inlet Air Temperature [C], 13.10000
 Component Sizing Information, AirTerminal:SingleDuct:VAV:Reheat, AIR TERMINAL SINGLE DUCT VAV REHEAT 10, Design Size Reheat Coil Sizing Inlet Air Humidity Ratio [kgWater/kgDryAir], 8.00000E-003
 Component Sizing Information, Coil:Heating:Water, COIL HEATING WATER 13, Design Size Rated Capacity [W], 10647.02966
 Component Sizing Information, Coil:Heating:Water, COIL HEATING WATER 13, Design Size Maximum Water Flow Rate [m3/s], 1.59022E-004
 Component Sizing Information, Coil:Heating:Water, COIL HEATING WATER 13, Design Size U-Factor Times Area Value [W/K], 194.94694
Water Heating Coil Capacity Information,Coil:Heating:Water,COIL HEATING WATER 13,9981.10
 Component Sizing Information, ZoneHVAC:Baseboard:Convective:Water, ZONE HVAC BASEBOARD CONVECTIVE WATER 10, Design Size Maximum Water Flow Rate [m3/s], 1.69826E-005
 Component Sizing Information, ZoneHVAC:Baseboard:Convective:Water, ZONE HVAC BASEBOARD CONVECTIVE WATER 10, Design Size U-Factor Times Area Value [W/K], 34.38931
 Component Sizing Information, AirTerminal:SingleDuct:VAV:Reheat, AIR TERMINAL SINGLE DUCT VAV REHEAT 16, Design Size Maximum Air Flow Rate [m3/s], 0.28747
 Component Sizing Information, AirTerminal:SingleDuct:VAV:Reheat, AIR TERMINAL SINGLE DUCT VAV REHEAT 16, Design Size Constant Minimum Air Flow Fraction, 9.59625E-002
 Component Sizing Information, AirTerminal:SingleDuct:VAV:Reheat, AIR TERMINAL SINGLE DUCT VAV REHEAT 16, User-Specified Constant Minimum Air Flow Fraction, 0.30000
 Component Sizing Information, AirTerminal:SingleDuct:VAV:Reheat, AIR TERMINAL SINGLE DUCT VAV REHEAT 16, Design Size Minimum Air Flow Rate [m3/s], 8.62415E-002
 Component Sizing Information, AirTerminal:SingleDuct:VAV:Reheat, AIR TERMINAL SINGLE DUCT VAV REHEAT 16, Design Size Maximum Flow per Zone Floor Area during Reheat [m3/s-m2], 2.38218E-003
 Component Sizing Information, AirTerminal:SingleDuct:VAV:Reheat, AIR TERMINAL SINGLE DUCT VAV REHEAT 16, Design Size Maximum Flow Fraction during Reheat [], 0.30000
 Component Sizing Information, AirTerminal:SingleDuct:VAV:Reheat, AIR TERMINAL SINGLE DUCT VAV REHEAT 16, Design Size Maximum Reheat Water Flow Rate [m3/s], 5.47837E-005
 Component Sizing Information, AirTerminal:SingleDuct:VAV:Reheat, AIR TERMINAL SINGLE DUCT VAV REHEAT 16, Design Size Reheat Coil Sizing Air Volume Flow Rate [m3/s], 9.77660E-002
 Component Sizing Information, AirTerminal:SingleDuct:VAV:Reheat, AIR TERMINAL SINGLE DUCT VAV REHEAT 16, Design Size Reheat Coil Sizing Inlet Air Temperature [C], 13.10000
 Component Sizing Information, AirTerminal:SingleDuct:VAV:Reheat, AIR TERMINAL SINGLE DUCT VAV REHEAT 16, Design Size Reheat Coil Sizing Inlet Air Humidity Ratio [kgWater/kgDryAir], 8.00000E-003
 Component Sizing Information, Coil:Heating:Water, COIL HEATING WATER 20, Design Size Rated Capacity [W], 3667.94024
 Component Sizing Information, Coil:Heating:Water, COIL HEATING WATER 20, Design Size Maximum Water Flow Rate [m3/s], 5.47837E-005
 Component Sizing Information, Coil:Heating:Water, COIL HEATING WATER 20, Design Size U-Factor Times Area Value [W/K], 83.42089
Water Heating Coil Capacity Information,Coil:Heating:Water,COIL HEATING WATER 20,3333.65
 Component Sizing Information, ZoneHVAC:Baseboard:Convective:Water, ZONE HVAC BASEBOARD CONVECTIVE WATER 16, Design Size Maximum Water Flow Rate [m3/s], 3.79158E-005
 Component Sizing Information, ZoneHVAC:Baseboard:Convective:Water, ZONE HVAC BASEBOARD CONVECTIVE WATER 16, Design Size U-Factor Times Area Value [W/K], 77.34036
 Component Sizing Information, AirTerminal:SingleDuct:VAV:Reheat, AIR TERMINAL SINGLE DUCT VAV REHEAT 5, Design Size Maximum Air Flow Rate [m3/s], 1.37503
 Component Sizing Information, AirTerminal:SingleDuct:VAV:Reheat, AIR TERMINAL SINGLE DUCT VAV REHEAT 5, Design Size Constant Minimum Air Flow Fraction, 0.17369
 Component Sizing Information, AirTerminal:SingleDuct:VAV:Reheat, AIR TERMINAL SINGLE DUCT VAV REHEAT 5, User-Specified Constant Minimum Air Flow Fraction, 0.30000
 Component Sizing Information, AirTerminal:SingleDuct:VAV:Reheat, AIR TERMINAL SINGLE DUCT VAV REHEAT 5, Design Size Minimum Air Flow Rate [m3/s], 0.41251
 Component Sizing Information, AirTerminal:SingleDuct:VAV:Reheat, AIR TERMINAL SINGLE DUCT VAV REHEAT 5, Design Size Maximum Flow per Zone Floor Area during Reheat [m3/s-m2], 1.31616E-003
[...]
 Component Sizing Information, Controller:OutdoorAir, CONTROLLER OUTDOOR AIR 4, Minimum Outdoor Air Flow Rate [m3/s], 1.53855
 Component Sizing Information, Coil:Cooling:Water, COIL COOLING WATER 4, Design Size Design Coil Load [W], 198315.54599
 Component Sizing Information, Coil:Cooling:Water, COIL COOLING WATER 4, Design Size Design Water Flow Rate [m3/s], 7.87422E-003
 Component Sizing Information, Coil:Cooling:Water, COIL COOLING WATER 4, Design Size Design Air Flow Rate [m3/s], 10.80933
 Component Sizing Information, Coil:Cooling:Water, COIL COOLING WATER 4, Design Size Design Inlet Air Temperature [C], 23.94788
 Component Sizing Information, Coil:Cooling:Water, COIL COOLING WATER 4, Design Size Design Inlet Water Temperature [C], 7.00000
 Component Sizing Information, Coil:Cooling:Water, COIL COOLING WATER 4, Design Size Design Outlet Air Temperature [C], 13.00000
 Component Sizing Information, Coil:Cooling:Water, COIL COOLING WATER 4, Design Size Design Inlet Air Humidity Ratio, 9.07758E-003
 Component Sizing Information, Coil:Cooling:Water, COIL COOLING WATER 4, Design Size Design Outlet Air Humidity Ratio, 8.39074E-003
Water Cooling Coil Capacity Information,Coil:Cooling:Water,COIL COOLING WATER 4,267954.12,189134.76,78819.36,0.71,33623.93,341.03
 Component Sizing Information, Coil:Heating:Water, COIL HEATING WATER 18, Design Size Rated Capacity [W], 17686.96921
 Component Sizing Information, Coil:Heating:Water, COIL HEATING WATER 18, Design Size Maximum Water Flow Rate [m3/s], 2.64169E-004
 Component Sizing Information, Coil:Heating:Water, COIL HEATING WATER 18, Design Size U-Factor Times Area Value [W/K], 285.63691
Water Heating Coil Capacity Information,Coil:Heating:Water,COIL HEATING WATER 18,15835.30
 Component Sizing Information, Fan:VariableVolume, SYS6 SUPPLY FAN 3, Design Size Maximum Flow Rate [m3/s], 10.80933
 Component Sizing Information, Controller:WaterCoil, CONTROLLER WATER COIL 22, Maximum Actuated Flow [m3/s], 7.87422E-003
 Component Sizing Information, Controller:WaterCoil, CONTROLLER WATER COIL 22, Controller Convergence Tolerance, 6.04746E-005
 Component Sizing Information, Controller:WaterCoil, CONTROLLER WATER COIL 21, Maximum Actuated Flow [m3/s], 2.64169E-004
 Component Sizing Information, Controller:WaterCoil, CONTROLLER WATER COIL 21, Controller Convergence Tolerance, 1.00000E-003
Water Heater Information,WaterHeater:Mixed,1103GAL NATURALGAS WATER HEATER - 744KBTU/HR,4.1737,218080.3,0.159,0.9210
 Component Sizing Information, PlantLoop, CHILLED WATER LOOP, Maximum Loop Flow Rate [m3/s], 9.52338E-002
 Component Sizing Information, PlantLoop, CHILLED WATER LOOP, Plant Loop Volume [m3], 11.42805
 Component Sizing Information, Pump:ConstantSpeed, PUMP CONSTANT SPEED 1, Design Flow Rate [m3/s], 9.52338E-002
 Component Sizing Information, Pump:ConstantSpeed, PUMP CONSTANT SPEED 1, Design Power Consumption [W], 24331.00887
 Component Sizing Information, Chiller:Electric:EIR, PRIMARY CHILLER WATERCOOLED SCROLL, Design Size Reference Chilled Water Flow Rate [m3/s], 9.52338E-002
 Component Sizing Information, Chiller:Electric:EIR, PRIMARY CHILLER WATERCOOLED SCROLL, Design Size Reference Capacity [W], 2398463.68816
 Component Sizing Information, Chiller:Electric:EIR, PRIMARY CHILLER WATERCOOLED SCROLL, Design Size Reference Condenser Fluid Flow Rate [m3/s], 0.11304
! <Chiller Standard Rating Information>, Component Type, Component Name, IPLV in SI Units {W/W}, IPLV in IP Units {Btu/W-h}
 Chiller Standard Rating Information, Chiller:Electric:EIR, PRIMARY CHILLER WATERCOOLED SCROLL, 7.88, 26.88
 Component Sizing Information, Chiller:Electric:EIR, SECONDARY CHILLER WATERCOOLED SCROLL, Design Size Reference Chilled Water Flow Rate [m3/s], 9.52338E-002
 Component Sizing Information, Chiller:Electric:EIR, SECONDARY CHILLER WATERCOOLED SCROLL, Design Size Reference Capacity [W], 2398463.68816
 Component Sizing Information, Chiller:Electric:EIR, SECONDARY CHILLER WATERCOOLED SCROLL, Design Size Reference Condenser Fluid Flow Rate [m3/s], 0.11304
 Chiller Standard Rating Information, Chiller:Electric:EIR, SECONDARY CHILLER WATERCOOLED SCROLL, 7.88, 26.88
 Component Sizing Information, PlantLoop, CONDENSER WATER LOOP, Maximum Loop Flow Rate [m3/s], 0.22607
 Component Sizing Information, PlantLoop, CONDENSER WATER LOOP, Plant Loop Volume [m3], 27.12841
 Component Sizing Information, Pump:ConstantSpeed, PUMP CONSTANT SPEED 2, Design Flow Rate [m3/s], 0.22607
 Component Sizing Information, Pump:ConstantSpeed, PUMP CONSTANT SPEED 2, Design Power Consumption [W], 57758.00161
 Component Sizing Information, CoolingTower:SingleSpeed, COOLING TOWER SINGLE SPEED 1, Design Water Flow Rate [m3/s], 0.22607
 Component Sizing Information, CoolingTower:SingleSpeed, COOLING TOWER SINGLE SPEED 1, Fan Power at Design Air Flow Rate [W], 49603.64052
 Component Sizing Information, CoolingTower:SingleSpeed, COOLING TOWER SINGLE SPEED 1, Design Air Flow Rate [m3/s], 130.60247
 Component Sizing Information, CoolingTower:SingleSpeed, COOLING TOWER SINGLE SPEED 1, U-Factor Times Area Value at Design Air Flow Rate [W/C], 258306.76058
 Component Sizing Information, CoolingTower:SingleSpeed, COOLING TOWER SINGLE SPEED 1, Free Convection Regime Air Flow Rate [m3/s], 13.06025
 Component Sizing Information, CoolingTower:SingleSpeed, COOLING TOWER SINGLE SPEED 1, Free Convection U-Factor Times Area Value [W/K], 25830.67606
 Component Sizing Information, PlantLoop, HOT WATER LOOP, Maximum Loop Flow Rate [m3/s], 2.23255E-002
 Component Sizing Information, PlantLoop, HOT WATER LOOP, Plant Loop Volume [m3], 2.67906
 Component Sizing Information, Pump:VariableSpeed, PUMP VARIABLE SPEED 1, Design Flow Rate [m3/s], 2.23255E-002
 Component Sizing Information, Pump:VariableSpeed, PUMP VARIABLE SPEED 1, Design Power Consumption [W], 5703.87020
 Component Sizing Information, Boiler:HotWater, PRIMARY BOILER, Design Size Nominal Capacity [W], 1500546.85620
 Component Sizing Information, Boiler:HotWater, PRIMARY BOILER, Design Size Design Water Flow Rate [m3/s], 2.23255E-002
 Component Sizing Information, Boiler:HotWater, SECONDARY BOILER, Design Size Nominal Capacity [W], 1500546.85620
 Component Sizing Information, Boiler:HotWater, SECONDARY BOILER, Design Size Design Water Flow Rate [m3/s], 2.23255E-002
 Component Sizing Information, PlantLoop, MAIN SERVICE WATER LOOP, Maximum Loop Flow Rate [m3/s], 8.81661E-003
 Component Sizing Information, PlantLoop, MAIN SERVICE WATER LOOP, Plant Loop Volume [m3], 1.05799
 Component Sizing Information, Pump:ConstantSpeed, SERVICE WATER LOOP PUMP, Design Flow Rate [m3/s], 8.81661E-003
 Component Sizing Information, Pump:ConstantSpeed, SERVICE WATER LOOP PUMP, Design Power Consumption [W], 18978.31167
 Component Sizing Information, WaterHeater:Mixed, 1103GAL NATURALGAS WATER HEATER - 744KBTU/HR, Use Side Design Flow Rate [m3/s], 8.81661E-003
! <Environment>,Environment Name,Environment Type, Start Date, End Date, Start DayOfWeek, Duration {#days}, Source:Start DayOfWeek,  Use Daylight Saving, Use Holidays, Apply Weekend Holiday Rule,  Use Rain Values, Use Snow Values
! <Environment:Special Days>, Special Day Name, Special Day Type, Source, Start Date, Duration {#days}
! <Environment:Daylight Saving>, Daylight Saving Indicator, Source, Start Date, End Date
! <Environment:WarmupDays>, NumberofWarmupDays
Environment,VANCOUVER INTL AP ANN CLG .4% CONDNS DB=>MWB,SizingPeriod:DesignDay,07/21,07/21,SummerDesignDay,1,N/A,N/A,N/A,N/A,N/A,N/A
Environment:Daylight Saving,No,SizingPeriod:DesignDay
! <Environment:Design Day Data>, Max Dry-Bulb Temp {C}, Temp Range {dC}, Temp Range Ind Type, Hum Ind Value at Max Temp, Hum Ind Type,Pressure {Pa}, Wind Direction {deg CW from N}, Wind Speed {m/s}, Clearness, Rain, Snow
! <Environment:Design Day Misc>,DayOfYear,ASHRAE A Coeff,ASHRAE B Coeff,ASHRAE C Coeff,Solar Constant-Annual Variation,Eq of Time {minutes}, Solar Declination Angle {deg}, Solar Model
Environment:Design Day Data,25.10,7.60,DefaultMultipliers,101273,300,3.7,0.00,No,No
Environment:Design Day Misc,202,1084.4,0.2082,0.1365,1.0,-6.23,20.6,ASHRAETau
Environment:WarmupDays,  6
! <Tabular Report>,Style,Unit Conversion
Tabular Report,HTML,None
! <Warmup Convergence Information>,Zone Name,Environment Type/Name,Average Warmup Temperature Difference {deltaC},Std Dev Warmup Temperature Difference {deltaC},Max Temperature Pass/Fail Convergence,Min Temperature Pass/Fail Convergence,Average Warmup Load Difference {W},Std Dev Warmup Load Difference {W},Heating Load Pass/Fail Convergence,Cooling Load Pass/Fail Convergence
 Warmup Convergence Information,SP-BASEMENT SYS-6 FLR-1 SCH-A HPLCMT-NORTH ZN,SizingPeriod: VANCOUVER INTL AP ANN CLG .4% CONDNS DB=>MWB,1.1311759992E-002,2.6319232943E-002,Pass,Pass,1.4517256525E-002,5.2228529400E-002,Pass,Pass
 Warmup Convergence Information,SP-CORE_BOTTOM SYS-6 FLR-2 SCH-A HPLCMT-CORE ZN,SizingPeriod: VANCOUVER INTL AP ANN CLG .4% CONDNS DB=>MWB,8.5116976148E-003,1.9719897981E-002,Pass,Pass,1.5235144829E-002,5.8957260700E-002,Pass,Pass
 Warmup Convergence Information,SP-CORE_MID SYS-6 FLR-3 SCH-A HPLCMT-CORE ZN,SizingPeriod: VANCOUVER INTL AP ANN CLG .4% CONDNS DB=>MWB,1.0985460090E-002,2.6125691453E-002,Pass,Pass,1.6557098149E-002,5.6726998339E-002,Pass,Pass
 Warmup Convergence Information,SP-CORE_TOP SYS-6 FLR-4 SCH-A HPLCMT-CORE ZN,SizingPeriod: VANCOUVER INTL AP ANN CLG .4% CONDNS DB=>MWB,1.6712220784E-002,3.8101185637E-002,Pass,Pass,1.5790252970E-002,4.8021092809E-002,Pass,Pass
 Warmup Convergence Information,SP-DATACENTER_BASEMENT_ZN_6 SYS-6 FLR-1 SCH-A HPLCMT-WEST ZN,SizingPeriod: VANCOUVER INTL AP ANN CLG .4% CONDNS DB=>MWB,1.6148040180E-002,4.1516409398E-002,Pass,Pass,1.6850294357E-002,5.7000296758E-002,Pass,Pass
 Warmup Convergence Information,SP-DATACENTER_BOT_ZN_6 SYS-6 FLR-2 SCH-A HPLCMT-CORE ZN,SizingPeriod: VANCOUVER INTL AP ANN CLG .4% CONDNS DB=>MWB,2.5531590343E-002,3.4159167439E-002,Pass,Pass,1.7716882150E-002,2.8984856236E-002,Pass,Pass
 Warmup Convergence Information,SP-DATACENTER_MID_ZN_6 SYS-6 FLR-3 SCH-A HPLCMT-CORE ZN,SizingPeriod: VANCOUVER INTL AP ANN CLG .4% CONDNS DB=>MWB,3.3703554345E-002,4.8394585158E-002,Pass,Pass,2.0793217891E-002,3.0714476421E-002,Pass,Pass
 Warmup Convergence Information,SP-DATACENTER_TOP_ZN_6 SYS-6 FLR-4 SCH-A HPLCMT-CORE ZN,SizingPeriod: VANCOUVER INTL AP ANN CLG .4% CONDNS DB=>MWB,3.9248936652E-002,6.6552922323E-002,Pass,Pass,2.7332068460E-002,5.0722730641E-002,Pass,Pass
 Warmup Convergence Information,SP-GROUNDFLOOR_PLENUM SYS-0 FLR-2 SCH-- UNDEFINED - HPLCMT-NORTH ZN,SizingPeriod: VANCOUVER INTL AP ANN CLG .4% CONDNS DB=>MWB,1.5279535205E-002,6.0116492715E-003,Pass,Pass,0.0000000000,0.0000000000,Pass,Pass
 Warmup Convergence Information,SP-MIDFLOOR_PLENUM SYS-0 FLR-3 SCH-- UNDEFINED - HPLCMT-NORTH ZN,SizingPeriod: VANCOUVER INTL AP ANN CLG .4% CONDNS DB=>MWB,1.7854680363E-002,6.9776796313E-003,Pass,Pass,0.0000000000,0.0000000000,Pass,Pass
 Warmup Convergence Information,SP-PERIMETER_BOT_ZN_1 SYS-6 FLR-2 SCH-A HPLCMT-SOUTH ZN,SizingPeriod: VANCOUVER INTL AP ANN CLG .4% CONDNS DB=>MWB,3.2312742903E-002,5.8845893559E-002,Pass,Pass,1.6893690432E-002,2.5006577354E-002,Pass,Pass
 Warmup Convergence Information,SP-PERIMETER_BOT_ZN_2 SYS-6 FLR-2 SCH-A HPLCMT-EAST ZN,SizingPeriod: VANCOUVER INTL AP ANN CLG .4% CONDNS DB=>MWB,5.6246328839E-002,0.1227708310,Pass,Pass,1.8987333781E-002,2.9147019105E-002,Pass,Pass
 Warmup Convergence Information,SP-PERIMETER_BOT_ZN_3 SYS-6 FLR-2 SCH-A HPLCMT-NORTH ZN,SizingPeriod: VANCOUVER INTL AP ANN CLG .4% CONDNS DB=>MWB,1.9454692718E-002,3.3015262968E-002,Pass,Pass,1.6679568884E-002,4.4416859147E-002,Pass,Pass
 Warmup Convergence Information,SP-PERIMETER_BOT_ZN_4 SYS-6 FLR-2 SCH-A HPLCMT-WEST ZN,SizingPeriod: VANCOUVER INTL AP ANN CLG .4% CONDNS DB=>MWB,4.8254440471E-002,0.1113713690,Pass,Pass,2.9504271515E-002,6.1855348521E-002,Pass,Pass
 Warmup Convergence Information,SP-PERIMETER_MID_ZN_1 SYS-6 FLR-3 SCH-A HPLCMT-SOUTH ZN,SizingPeriod: VANCOUVER INTL AP ANN CLG .4% CONDNS DB=>MWB,4.5588777329E-002,9.3953813715E-002,Pass,Pass,2.3958896667E-002,4.0290690564E-002,Pass,Pass
 Warmup Convergence Information,SP-PERIMETER_MID_ZN_2 SYS-6 FLR-3 SCH-A HPLCMT-EAST ZN,SizingPeriod: VANCOUVER INTL AP ANN CLG .4% CONDNS DB=>MWB,6.2994407007E-002,0.1233246887,Pass,Pass,2.3311180304E-002,2.7464113415E-002,Pass,Pass
 Warmup Convergence Information,SP-PERIMETER_MID_ZN_3 SYS-6 FLR-3 SCH-A HPLCMT-NORTH ZN,SizingPeriod: VANCOUVER INTL AP ANN CLG .4% CONDNS DB=>MWB,2.2969796215E-002,3.3137787848E-002,Pass,Pass,1.7194169343E-002,4.0424092564E-002,Pass,Pass
 Warmup Convergence Information,SP-PERIMETER_MID_ZN_4 SYS-6 FLR-3 SCH-A HPLCMT-WEST ZN,SizingPeriod: VANCOUVER INTL AP ANN CLG .4% CONDNS DB=>MWB,6.2595566411E-002,0.1647352572,Pass,Pass,4.4299171672E-002,0.1111794227,Pass,Pass
 Warmup Convergence Information,SP-PERIMETER_TOP_ZN_1 SYS-6 FLR-4 SCH-A HPLCMT-SOUTH ZN,SizingPeriod: VANCOUVER INTL AP ANN CLG .4% CONDNS DB=>MWB,5.1130443365E-002,0.1267357425,Pass,Pass,3.7966125976E-002,0.1237371368,Pass,Pass
 Warmup Convergence Information,SP-PERIMETER_TOP_ZN_2 SYS-6 FLR-4 SCH-A HPLCMT-EAST ZN,SizingPeriod: VANCOUVER INTL AP ANN CLG .4% CONDNS DB=>MWB,6.4688281185E-002,0.1231990308,Pass,Pass,2.2934187616E-002,2.6471188714E-002,Pass,Pass
 Warmup Convergence Information,SP-PERIMETER_TOP_ZN_3 SYS-6 FLR-4 SCH-A HPLCMT-NORTH ZN,SizingPeriod: VANCOUVER INTL AP ANN CLG .4% CONDNS DB=>MWB,2.7313393326E-002,4.5802090957E-002,Pass,Pass,1.8213415394E-002,3.2354242239E-002,Pass,Pass
 Warmup Convergence Information,SP-PERIMETER_TOP_ZN_4 SYS-6 FLR-4 SCH-A HPLCMT-WEST ZN,SizingPeriod: VANCOUVER INTL AP ANN CLG .4% CONDNS DB=>MWB,6.6359845161E-002,0.1773532974,Pass,Pass,5.8893163742E-002,0.1851008820,Pass,Pass
 Warmup Convergence Information,SP-TOPFLOOR_PLENUM SYS-0 FLR-4 SCH-- UNDEFINED - HPLCMT-NORTH ZN,SizingPeriod: VANCOUVER INTL AP ANN CLG .4% CONDNS DB=>MWB,6.8772908430E-002,3.6724222360E-002,Pass,Pass,0.0000000000,0.0000000000,Pass,Pass
Environment,VANCOUVER INTL AP ANN HTG 99.6% CONDNS DB,SizingPeriod:DesignDay,12/21,12/21,WinterDesignDay,1,N/A,N/A,N/A,N/A,N/A,N/A
Environment:Daylight Saving,No,SizingPeriod:DesignDay
Environment:Design Day Data,-6.10,0.00,DefaultMultipliers,101273,100,3.0,0.00,No,No
Environment:Design Day Misc,355,1232.8,0.1424,5.7719E-002,1.0,2.45,-23.5,ASHRAEClearSky
Environment:WarmupDays,  9
 Warmup Convergence Information,SP-BASEMENT SYS-6 FLR-1 SCH-A HPLCMT-NORTH ZN,SizingPeriod: VANCOUVER INTL AP ANN HTG 99.6% CONDNS DB,4.0560204874E-002,7.1093720140E-002,Pass,Pass,3.1316733865E-002,0.1626556134,Pass,Pass
 Warmup Convergence Information,SP-CORE_BOTTOM SYS-6 FLR-2 SCH-A HPLCMT-CORE ZN,SizingPeriod: VANCOUVER INTL AP ANN HTG 99.6% CONDNS DB,5.6631818112E-002,9.8106167405E-002,Pass,Pass,2.0028888175E-002,6.7777157661E-002,Pass,Pass
 Warmup Convergence Information,SP-CORE_MID SYS-6 FLR-3 SCH-A HPLCMT-CORE ZN,SizingPeriod: VANCOUVER INTL AP ANN HTG 99.6% CONDNS DB,5.9966937560E-002,9.4161691375E-002,Pass,Pass,5.0700682914E-002,0.2916319848,Pass,Pass
 Warmup Convergence Information,SP-CORE_TOP SYS-6 FLR-4 SCH-A HPLCMT-CORE ZN,SizingPeriod: VANCOUVER INTL AP ANN HTG 99.6% CONDNS DB,5.6023194314E-002,0.2284856269,Pass,Pass,0.2608072176,1.3640554148,Pass,Pass
 Warmup Convergence Information,SP-DATACENTER_BASEMENT_ZN_6 SYS-6 FLR-1 SCH-A HPLCMT-WEST ZN,SizingPeriod: VANCOUVER INTL AP ANN HTG 99.6% CONDNS DB,6.2754217586E-002,0.1040627562,Pass,Pass,7.2985419150E-002,0.3165398145,Pass,Pass
 Warmup Convergence Information,SP-DATACENTER_BOT_ZN_6 SYS-6 FLR-2 SCH-A HPLCMT-CORE ZN,SizingPeriod: VANCOUVER INTL AP ANN HTG 99.6% CONDNS DB,6.2845025797E-002,0.1524177573,Pass,Pass,0.1702312548,0.8823010186,Pass,Pass
 Warmup Convergence Information,SP-DATACENTER_MID_ZN_6 SYS-6 FLR-3 SCH-A HPLCMT-CORE ZN,SizingPeriod: VANCOUVER INTL AP ANN HTG 99.6% CONDNS DB,6.7855048954E-002,0.1806354163,Pass,Pass,0.2224010590,0.7900086506,Pass,Pass
 Warmup Convergence Information,SP-DATACENTER_TOP_ZN_6 SYS-6 FLR-4 SCH-A HPLCMT-CORE ZN,SizingPeriod: VANCOUVER INTL AP ANN HTG 99.6% CONDNS DB,5.6832870268E-002,0.2970970015,Pass,Pass,0.1148123492,0.2882052350,Pass,Pass
 Warmup Convergence Information,SP-GROUNDFLOOR_PLENUM SYS-0 FLR-2 SCH-- UNDEFINED - HPLCMT-NORTH ZN,SizingPeriod: VANCOUVER INTL AP ANN HTG 99.6% CONDNS DB,1.2612510054E-002,5.2651605505E-003,Pass,Pass,0.0000000000,0.0000000000,Pass,Pass
 Warmup Convergence Information,SP-MIDFLOOR_PLENUM SYS-0 FLR-3 SCH-- UNDEFINED - HPLCMT-NORTH ZN,SizingPeriod: VANCOUVER INTL AP ANN HTG 99.6% CONDNS DB,1.4722098795E-002,6.1440270183E-003,Pass,Pass,0.0000000000,0.0000000000,Pass,Pass
 Warmup Convergence Information,SP-PERIMETER_BOT_ZN_1 SYS-6 FLR-2 SCH-A HPLCMT-SOUTH ZN,SizingPeriod: VANCOUVER INTL AP ANN HTG 99.6% CONDNS DB,5.6194629674E-002,0.2309338607,Pass,Pass,0.1873703839,0.6651112694,Pass,Pass
 Warmup Convergence Information,SP-PERIMETER_BOT_ZN_2 SYS-6 FLR-2 SCH-A HPLCMT-EAST ZN,SizingPeriod: VANCOUVER INTL AP ANN HTG 99.6% CONDNS DB,5.6094587980E-002,0.2635124648,Pass,Pass,0.1424792723,0.3794236889,Pass,Pass
 Warmup Convergence Information,SP-PERIMETER_BOT_ZN_3 SYS-6 FLR-2 SCH-A HPLCMT-NORTH ZN,SizingPeriod: VANCOUVER INTL AP ANN HTG 99.6% CONDNS DB,5.6095133142E-002,0.2147666110,Pass,Pass,0.1315895031,0.3392946313,Pass,Pass
 Warmup Convergence Information,SP-PERIMETER_BOT_ZN_4 SYS-6 FLR-2 SCH-A HPLCMT-WEST ZN,SizingPeriod: VANCOUVER INTL AP ANN HTG 99.6% CONDNS DB,5.6295563738E-002,0.2678977361,Pass,Pass,0.1359308697,0.3434592595,Pass,Pass
 Warmup Convergence Information,SP-PERIMETER_MID_ZN_1 SYS-6 FLR-3 SCH-A HPLCMT-SOUTH ZN,SizingPeriod: VANCOUVER INTL AP ANN HTG 99.6% CONDNS DB,5.6617822762E-002,0.2750647284,Pass,Pass,0.1591827902,0.7512255458,Pass,Pass
 Warmup Convergence Information,SP-PERIMETER_MID_ZN_2 SYS-6 FLR-3 SCH-A HPLCMT-EAST ZN,SizingPeriod: VANCOUVER INTL AP ANN HTG 99.6% CONDNS DB,5.6609592125E-002,0.3024181463,Pass,Pass,0.1190909069,0.4718905578,Pass,Pass
 Warmup Convergence Information,SP-PERIMETER_MID_ZN_3 SYS-6 FLR-3 SCH-A HPLCMT-NORTH ZN,SizingPeriod: VANCOUVER INTL AP ANN HTG 99.6% CONDNS DB,5.6259677928E-002,0.2582266782,Pass,Pass,0.2013152546,1.1739686776,Pass,Pass
 Warmup Convergence Information,SP-PERIMETER_MID_ZN_4 SYS-6 FLR-3 SCH-A HPLCMT-WEST ZN,SizingPeriod: VANCOUVER INTL AP ANN HTG 99.6% CONDNS DB,5.6701710907E-002,0.3077233133,Pass,Pass,0.1256921223,0.4918995103,Pass,Pass
 Warmup Convergence Information,SP-PERIMETER_TOP_ZN_1 SYS-6 FLR-4 SCH-A HPLCMT-SOUTH ZN,SizingPeriod: VANCOUVER INTL AP ANN HTG 99.6% CONDNS DB,5.6684352701E-002,0.3270411047,Pass,Pass,5.1494669688E-002,0.3140815872,Pass,Pass
 Warmup Convergence Information,SP-PERIMETER_TOP_ZN_2 SYS-6 FLR-4 SCH-A HPLCMT-EAST ZN,SizingPeriod: VANCOUVER INTL AP ANN HTG 99.6% CONDNS DB,5.6930915807E-002,0.3378437483,Pass,Pass,4.5251191082E-002,0.2713356997,Pass,Pass
 Warmup Convergence Information,SP-PERIMETER_TOP_ZN_3 SYS-6 FLR-4 SCH-A HPLCMT-NORTH ZN,SizingPeriod: VANCOUVER INTL AP ANN HTG 99.6% CONDNS DB,5.6629015158E-002,0.3126249538,Pass,Pass,5.1393617601E-002,0.3398236579,Pass,Pass
 Warmup Convergence Information,SP-PERIMETER_TOP_ZN_4 SYS-6 FLR-4 SCH-A HPLCMT-WEST ZN,SizingPeriod: VANCOUVER INTL AP ANN HTG 99.6% CONDNS DB,5.7125277220E-002,0.3387657270,Pass,Pass,4.7411939679E-002,0.2895277001,Pass,Pass
 Warmup Convergence Information,SP-TOPFLOOR_PLENUM SYS-0 FLR-4 SCH-- UNDEFINED - HPLCMT-NORTH ZN,SizingPeriod: VANCOUVER INTL AP ANN HTG 99.6% CONDNS DB,2.0328271237E-002,8.7040541860E-003,Pass,Pass,0.0000000000,0.0000000000,Pass,Pass
! <Program Control Information:Threads/Parallel Sims>, Threading Supported,Maximum Number of Threads, Env Set Threads (OMP_NUM_THREADS), EP Env Set Threads (EP_OMP_NUM_THREADS), IDF Set Threads, Number of Threads Used (Interior Radiant Exchange), Number Nominal Surfaces, Number Parallel Sims
Program Control:Threads/Parallel Sims, No,1, N/A, N/A, N/A, N/A, N/A, N/A
End of Data
