{
  "completed_at": "20190221T165143Z",
  "completed_status": "Success",
  "created_at": "2019-02-21 16:46:39 +0000",
  "current_step": 6,
  "description": "",
  "eplusout_err": "Program Version,EnergyPlus, Version 8.9.0-eba93e8e1b, YMD=2019.02.21 16:50,\n   ************* Beginning Zone Sizing Calculations\n   ** Warning ** ProcessScheduleInput: Schedule:Day:Interval=\"ECONOMIZER MAX OA FRACTION 100 PCT DEFAULT\", Blank Schedule Type Limits Name input -- will not be validated.\n   ** Warning ** ProcessScheduleInput: Schedule:Day:Interval=\"SCHEDULE DAY 1\", Blank Schedule Type Limits Name input -- will not be validated.\n   ** Warning ** ProcessScheduleInput: Schedule:Day:Interval=\"SCHEDULE DAY 10\", Blank Schedule Type Limits Name input -- will not be validated.\n   ** Warning ** ProcessScheduleInput: Schedule:Day:Interval=\"SCHEDULE DAY 11\", Blank Schedule Type Limits Name input -- will not be validated.\n   ** Warning ** ProcessScheduleInput: Schedule:Day:Interval=\"SCHEDULE DAY 12\", Blank Schedule Type Limits Name input -- will not be validated.\n   ** Warning ** ProcessScheduleInput: Schedule:Day:Interval=\"SCHEDULE DAY 13\", Blank Schedule Type Limits Name input -- will not be validated.\n   ** Warning ** ProcessScheduleInput: Schedule:Day:Interval=\"SCHEDULE DAY 14\", Blank Schedule Type Limits Name input -- will not be validated.\n   ** Warning ** ProcessScheduleInput: Schedule:Day:Interval=\"SCHEDULE DAY 2\", Blank Schedule Type Limits Name input -- will not be validated.\n   ** Warning ** ProcessScheduleInput: Schedule:Day:Interval=\"SCHEDULE DAY 5\", Blank Schedule Type Limits Name input -- will not be validated.\n   ** Warning ** ProcessScheduleInput: Schedule:Day:Interval=\"SCHEDULE DAY 6\", Blank Schedule Type Limits Name input -- will not be validated.\n   ** Warning ** ProcessScheduleInput: Schedule:Day:Interval=\"SCHEDULE DAY 7\", Blank Schedule Type Limits Name input -- will not be validated.\n   ** Warning ** ProcessScheduleInput: Schedule:Day:Interval=\"SCHEDULE DAY 8\", Blank Schedule Type Limits Name input -- will not be validated.\n   ** Warning ** ProcessScheduleInput: Schedule:Day:Interval=\"SCHEDULE DAY 9\", Blank Schedule Type Limits Name input -- will not be validated.\n   ** Warning ** ProcessScheduleInput: Schedule:Year=\"ECONOMIZER MAX OA FRACTION 100 PCT\", Blank Schedule Type Limits Name input -- will not be validated.\n   ** Warning ** ProcessScheduleInput: Schedule:Year=\"SCHEDULE RULESET 3\", Blank Schedule Type Limits Name input -- will not be validated.\n   ** Warning ** ProcessScheduleInput: Schedule:Year=\"SCHEDULE RULESET 4\", Blank Schedule Type Limits Name input -- will not be validated.\n   ** Warning ** ProcessScheduleInput: Schedule:Year=\"SCHEDULE RULESET 5\", Blank Schedule Type Limits Name input -- will not be validated.\n   ** Warning ** ProcessScheduleInput: Schedule:Year=\"SCHEDULE RULESET 6\", Blank Schedule Type Limits Name input -- will not be validated.\n   ** Warning ** ProcessScheduleInput: Schedule:Year=\"SCHEDULE RULESET 7\", Blank Schedule Type Limits Name input -- will not be validated.\n   ** Warning ** ProcessScheduleInput: Schedule:Year=\"SCHEDULE RULESET 8\", Blank Schedule Type Limits Name input -- will not be validated.\n   ** Warning ** ProcessScheduleInput: Schedule:Constant=\"ALWAYS OFF DISCRETE\", Blank Schedule Type Limits Name input -- will not be validated.\n   ** Warning ** ProcessScheduleInput: Schedule:Constant=\"ALWAYS ON CONTINUOUS\", Blank Schedule Type Limits Name input -- will not be validated.\n   ** Warning ** CheckUsedConstructions: There are 18 nominally unused constructions in input.\n   **   ~~~   ** For explicit details on each unused construction, use Output:Diagnostics,DisplayExtraWarnings;\n   ** Warning ** GetInternalHeatGains: People Combination of ZoneList and Object Name generate a name too long.\n   **   ~~~   ** Object Name=\"SPACE FUNCTION DINING AREA - BAR LOUNGE/LEISURE DINING PEOPLE\".\n   **   ~~~   ** ZoneList/Zone Name=\"SP-DINING SYS-3 FLR-1 SCH-B HPLCMT-SOUTH ZN\".\n   **   ~~~   ** Item length=[104] > Maximum Length=[100]. You may need to shorten the names.\n   **   ~~~   ** Shortening the Object Name by [5] characters will assure uniqueness for this ZoneList.\n   **   ~~~   ** name that will be used (may be needed in reporting)=\"SP-DINING SYS-3 FLR-1 SCH-B HPLCMT-SOUTH ZN SPACE FUNCTION DINING AREA - BAR LOUNGE/LEISURE DINING PEOPLE\".\n   ** Warning ** GetInternalHeatGains: Lights Combination of ZoneList and Object Name generate a name too long.\n   **   ~~~   ** Object Name=\"SPACE FUNCTION DINING AREA - BAR LOUNGE/LEISURE DINING LIGHTS\".\n   **   ~~~   ** ZoneList/Zone Name=\"SP-DINING SYS-3 FLR-1 SCH-B HPLCMT-SOUTH ZN\".\n   **   ~~~   ** Item length=[104] > Maximum Length=[100]. You may need to shorten the names.\n   **   ~~~   ** Shortening the Object Name by [5] characters will assure uniqueness for this ZoneList.\n   **   ~~~   ** name that will be used (may be needed in reporting)=\"SP-DINING SYS-3 FLR-1 SCH-B HPLCMT-SOUTH ZN SPACE FUNCTION DINING AREA - BAR LOUNGE/LEISURE DINING LIGHTS\".\n   ** Warning ** GetInternalHeatGains: ElectricEquipment Combination of ZoneList and Object Name generate a name too long.\n   **   ~~~   ** Object Name=\"SPACE FUNCTION DINING AREA - BAR LOUNGE/LEISURE DINING ELEC EQUIP\".\n   **   ~~~   ** ZoneList/Zone Name=\"SP-DINING SYS-3 FLR-1 SCH-B HPLCMT-SOUTH ZN\".\n   **   ~~~   ** Item length=[108] > Maximum Length=[100]. You may need to shorten the names.\n   **   ~~~   ** Shortening the Object Name by [9] characters will assure uniqueness for this ZoneList.\n   **   ~~~   ** name that will be used (may be needed in reporting)=\"SP-DINING SYS-3 FLR-1 SCH-B HPLCMT-SOUTH ZN SPACE FUNCTION DINING AREA - BAR LOUNGE/LEISURE DINING ELEC EQUIP\".\n   ************* Beginning System Sizing Calculations\n   ************* Beginning Plant Sizing Calculations\n   ** Warning ** GetDXCoils: Coil:Cooling:DX:SingleSpeed=\"COIL COOLING DX SINGLE SPEED 2 24KBTU/HR 14.0SEER\", invalid\n   **   ~~~   ** ...Part Load Fraction Correlation Curve Name = DXCOOL-NECB2011-REF-COOLPLFFPLR has out of range value.\n   **   ~~~   ** ...Curve maximum must be <= 1.0, curve max at PLR = 0.99 is 1.015\n   **   ~~~   ** ...Setting curve maximum to 1.0 and simulation continues.\n   ** Warning ** The Standard Ratings is calculated for Coil:Cooling:DX:SingleSpeed = COIL COOLING DX SINGLE SPEED 2 24KBTU/HR 14.0SEER but not at the AHRI test condition due to curve out of bound.\n   **   ~~~   **  Review the Standard Ratings calculations in the Engineering Reference for this coil type. Also, use Output:Diagnostics, DisplayExtraWarnings for further guidance.\n   ** Warning ** The Standard Ratings is calculated for Coil:Cooling:DX:SingleSpeed = COIL COOLING DX SINGLE SPEED 1 21KBTU/HR 14.0SEER but not at the AHRI test condition due to curve out of bound.\n   **   ~~~   **  Review the Standard Ratings calculations in the Engineering Reference for this coil type. Also, use Output:Diagnostics, DisplayExtraWarnings for further guidance.\n   ** Warning ** Output:Meter: invalid Key Name=\"GAS:FACILITY\" - not found.\n   ** Warning ** Output:Meter: invalid Key Name=\"DISTRICTCOOLING:FACILITY\" - not found.\n   ** Warning ** Output:Meter: invalid Key Name=\"DISTRICTHEATING:FACILITY\" - not found.\n   ** Warning ** Output:Meter:MeterFileOnly: invalid Key Name=\"GAS:FACILITY\" - not found.\n   ** Warning ** Output:Meter:MeterFileOnly: invalid Key Name=\"GAS:FACILITY\" - not found.\n   ** Warning ** Output:Meter:MeterFileOnly requested for \"Electricity:Facility\" (TimeStep), already on \"Output:Meter\". Will report to both eplusout.eso and eplusout.mtr\n   ************* Testing Individual Branch Integrity\n   ************* All Branches passed integrity testing\n   ************* Testing Individual Supply Air Path Integrity\n   ************* All Supply Air Paths passed integrity testing\n   ************* Testing Individual Return Air Path Integrity\n   ************* All Return Air Paths passed integrity testing\n   ************* No node connection errors were found.\n   ************* Beginning Simulation\n   ** Warning ** Processing Monthly Tabular Reports: Variable names not valid for this simulation\n   **   ~~~   ** ...use Output:Diagnostics,DisplayExtraWarnings; to show more details on individual variables.\n   ** Warning ** CalcDoe2DXCoil: Coil:Cooling:DX:SingleSpeed \"COIL COOLING DX SINGLE SPEED 2 24KBTU/HR 14.0SEER\" - Air-cooled condenser inlet dry-bulb temperature below 0 C. Outdoor dry-bulb temperature = -21.65\n   **   ~~~   **  ... Occurrence info = RUN PERIOD 1, 01/05 08:02 - 08:03\n   **   ~~~   ** ... Operation at low ambient temperatures may require special performance curves.\n   ** Warning ** CalcDoe2DXCoil: Coil:Cooling:DX:SingleSpeed \"COIL COOLING DX SINGLE SPEED 1 21KBTU/HR 14.0SEER\" - Air-cooled condenser inlet dry-bulb temperature below 0 C. Outdoor dry-bulb temperature = -21.65\n   **   ~~~   **  ... Occurrence info = RUN PERIOD 1, 01/05 08:02 - 08:03\n   **   ~~~   ** ... Operation at low ambient temperatures may require special performance curves.\n   ** Warning ** CalcDoe2DXCoil: Coil:Cooling:DX:SingleSpeed \"COIL COOLING DX SINGLE SPEED 1 21KBTU/HR 14.0SEER\" - Full load outlet air dry-bulb temperature < 2C. This indicates the possibility of coil frost/freeze. Outlet temperature = 0.29 C.\n   **   ~~~   **  ...Occurrence info = RUN PERIOD 1, 02/06 00:02 - 00:03\n   **   ~~~   ** ... Possible reasons for low outlet air dry-bulb temperatures are: This DX coil\n   **   ~~~   **    1) may have a low inlet air dry-bulb temperature. Inlet air temperature = 13.185 C.\n   **   ~~~   **    2) may have a low air flow rate per watt of cooling capacity. Check inputs.\n   **   ~~~   **    3) is used as part of a HX assisted cooling coil which uses a high sensible effectiveness. Check inputs.\n   ** Warning ** CalcDoe2DXCoil: Coil:Cooling:DX:SingleSpeed \"COIL COOLING DX SINGLE SPEED 2 24KBTU/HR 14.0SEER\" - Full load outlet air dry-bulb temperature < 2C. This indicates the possibility of coil frost/freeze. Outlet temperature = 1.72 C.\n   **   ~~~   **  ...Occurrence info = RUN PERIOD 1, 06/08 13:20 - 13:30\n   **   ~~~   ** ... Possible reasons for low outlet air dry-bulb temperatures are: This DX coil\n   **   ~~~   **    1) may have a low inlet air dry-bulb temperature. Inlet air temperature = 14.600 C.\n   **   ~~~   **    2) may have a low air flow rate per watt of cooling capacity. Check inputs.\n   **   ~~~   **    3) is used as part of a HX assisted cooling coil which uses a high sensible effectiveness. Check inputs.\n   ** Warning ** The resource referenced by LifeCycleCost:UsePriceEscalation= \"U.S. AVG  COMMERCIAL-ELECTRICITY\" has no energy cost. \n   **   ~~~   ** ... It is likely that the wrong resource is used. The resource should match the meter used in Utility:Tariff.\n   ** Warning ** The resource referenced by LifeCycleCost:UsePriceEscalation= \"U.S. AVG  COMMERCIAL-DISTILLATE OIL\" has no energy cost. \n   **   ~~~   ** ... It is likely that the wrong resource is used. The resource should match the meter used in Utility:Tariff.\n   ** Warning ** The resource referenced by LifeCycleCost:UsePriceEscalation= \"U.S. AVG  COMMERCIAL-RESIDUAL OIL\" has no energy cost. \n   **   ~~~   ** ... It is likely that the wrong resource is used. The resource should match the meter used in Utility:Tariff.\n   ** Warning ** The resource referenced by LifeCycleCost:UsePriceEscalation= \"U.S. AVG  COMMERCIAL-NATURAL GAS\" has no energy cost. \n   **   ~~~   ** ... It is likely that the wrong resource is used. The resource should match the meter used in Utility:Tariff.\n   ** Warning ** The resource referenced by LifeCycleCost:UsePriceEscalation= \"U.S. AVG  COMMERCIAL-COAL\" has no energy cost. \n   **   ~~~   ** ... It is likely that the wrong resource is used. The resource should match the meter used in Utility:Tariff.\n   ************* Simulation Error Summary *************\n   ************* There are 9 unused schedules in input.\n   ************* There are 9 unused week schedules in input.\n   ************* There are 16 unused day schedules in input.\n   ************* Use Output:Diagnostics,DisplayUnusedSchedules; to see them.\n   *************\n   ************* ===== Recurring Error Summary =====\n   ************* The following recurring error messages occurred.\n   *************\n   *************  ** Warning ** Plant loop falling below lower temperature limit, PlantLoop=\"MAIN SERVICE WATER LOOP\"\n   *************  **   ~~~   **   This error occurred 4 total times;\n   *************  **   ~~~   **   during Warmup 4 times;\n   *************  **   ~~~   **   during Sizing 0 times.\n   *************  **   ~~~   **   Min=0.237051\n   *************\n   *************  ** Warning ** CalcDoe2DXCoil: Coil:Cooling:DX:SingleSpeed=\"COIL COOLING DX SINGLE SPEED 2 24KBTU/HR 14.0SEER\" - Low condenser dry-bulb temperature error continues...\n   *************  **   ~~~   **   This error occurred 492 total times;\n   *************  **   ~~~   **   during Warmup 0 times;\n   *************  **   ~~~   **   during Sizing 0 times.\n   *************  **   ~~~   **   Max=-3.333333E-002 [C]  Min=-24.866667 [C]\n   *************\n   *************  ** Warning ** CalcDoe2DXCoil: Coil:Cooling:DX:SingleSpeed=\"COIL COOLING DX SINGLE SPEED 1 21KBTU/HR 14.0SEER\" - Low condenser dry-bulb temperature error continues...\n   *************  **   ~~~   **   This error occurred 546 total times;\n   *************  **   ~~~   **   during Warmup 0 times;\n   *************  **   ~~~   **   during Sizing 0 times.\n   *************  **   ~~~   **   Max=-3.333333E-002 [C]  Min=-24.866667 [C]\n   *************\n   *************  ** Warning ** CalcDoe2DXCoil: Coil:Cooling:DX:SingleSpeed=\"COIL COOLING DX SINGLE SPEED 1 21KBTU/HR 14.0SEER\" - Full load outlet temperature indicates a possibility of frost/freeze error continues. Outlet air temperature statistics follow:\n   *************  **   ~~~   **   This error occurred 22 total times;\n   *************  **   ~~~   **   during Warmup 0 times;\n   *************  **   ~~~   **   during Sizing 0 times.\n   *************  **   ~~~   **   Max=1.757493  Min=-0.58375\n   *************\n   *************  ** Warning ** CalcDoe2DXCoil: Coil:Cooling:DX:SingleSpeed=\"COIL COOLING DX SINGLE SPEED 2 24KBTU/HR 14.0SEER\" - Full load outlet temperature indicates a possibility of frost/freeze error continues. Outlet air temperature statistics follow:\n   *************  **   ~~~   **   This error occurred 10 total times;\n   *************  **   ~~~   **   during Warmup 0 times;\n   *************  **   ~~~   **   during Sizing 0 times.\n   *************  **   ~~~   **   Max=1.974988  Min=1.722017\n   *************\n   *************\n   ************* ===== Final Error Summary =====\n   ************* The following error categories occurred.  Consider correcting or noting.\n   ************* Nominally Unused Constructions\n   ************* ..The nominally unused constructions warning is provided to alert you to potential conditions that can cause\n   ************* ..extra time during simulation. Each construction is calculated by the algorithm indicated in the HeatBalanceAlgorithm\n   ************* ..object. You may remove the constructions indicated (when you use the DisplayExtraWarnings option).\n   *************\n   ************* EnergyPlus Warmup Error Summary. During Warmup: 0 Warning; 0 Severe Errors.\n   ************* EnergyPlus Sizing Error Summary. During Sizing: 26 Warning; 0 Severe Errors.\n   ************* EnergyPlus Completed Successfully-- 1115 Warning; 0 Severe Errors; Elapsed Time=00hr 00min 57.79sec\n",
  "file_format_version": "0.0.1",
  "file_paths": [
    "../weather",
    "../seeds",
    "../seed"
  ],
  "hash": "1D99A103",
  "measure_paths": [
    "../measures"
  ],
  "name": "DOE Autogenerated 12",
  "osa_id": "63796a5d-cec7-494a-9e67-4109aa458616",
  "osd_id": "1575f484-2684-4ef5-93f6-b23e01bcf40b",
  "run_directory": "./run",
  "seed_file": "dummy.osm",
  "started_at": "20190221T164651Z",
  "steps": [
    {
      "arguments": {
        "building_type": "QuickServiceRestaurant",
        "epw_file": "CAN_NT_Yellowknife.AP.719360_CWEC2016.epw",
        "new_auto_zoner": false,
        "template": "NECB2017"
      },
      "description": "This measure creates an NECB prototype building from scratch and uses it as the base for an analysis.",
      "measure_dir_name": "btap_create_necb_prototype_building",
      "name": "btap_create_necb_prototype_building",
      "result": {
        "completed_at": "20190221T164943Z",
        "measure_class_name": "BTAPCreateNECBPrototypeBuilding",
        "measure_display_name": "BTAPCreateNECBPrototypeBuilding",
        "measure_name": "btap_create_necb_prototype_building",
        "measure_taxonomy": "Whole Building.Space Types",
        "measure_type": "ModelMeasure",
        "measure_uid": "3e9acd53-8602-4749-a655-7cbbe48e8b30",
        "measure_version_id": "acb70987-933e-468b-b16a-8eb7dd810946",
        "measure_version_modified": "20190220T180311Z",
        "measure_xml_checksum": "2C38F48B",
        "started_at": "20190221T164651Z",
        "stderr": "",
        "stdout": "[OpenStudio.Measure] <0> OSArgumentVector is deprecated, use OpenStudio::Measure::OSArgumentVector instead.\n[openstudio.EpwFile] <0> Successive data points (2009-Jan-31 to 2004-Feb-01, ending on line 753) are greater than 1 day apart in EPW file '/usr/local/lib/ruby/gems/2.2.0/bundler/gems/openstudio-standards-b33bde241549/data/weather/CAN_NT_Yellowknife.AP.719360_CWEC2016.epw'. Data will be treated as typical (TMY)\n[openstudio.setFileExtension] <0> Path p, '/usr/local/lib/ruby/gems/2.2.0/bundler/gems/openstudio-standards-b33bde241549/data/weather/CAN_NT_Yellowknife.AP.719360_CWEC2016.ddy', has an unexpected file extension. Was expecting 'idf'.\n[openstudio.setFileExtension] <0> Path p, '/usr/local/lib/ruby/gems/2.2.0/bundler/gems/openstudio-standards-b33bde241549/data/weather/CAN_NT_Yellowknife.AP.719360_CWEC2016.ddy', has an unexpected file extension. Was expecting 'idf'.\n[openstudio.EpwFile] <0> Successive data points (2009-Jan-31 to 2004-Feb-01, ending on line 753) are greater than 1 day apart in EPW file '/usr/local/lib/ruby/gems/2.2.0/bundler/gems/openstudio-standards-b33bde241549/data/weather/CAN_NT_Yellowknife.AP.719360_CWEC2016.epw'. Data will be treated as typical (TMY)\n[openstudio.setFileExtension] <0> Path p, '/usr/local/lib/ruby/gems/2.2.0/bundler/gems/openstudio-standards-b33bde241549/data/weather/CAN_NT_Yellowknife.AP.719360_CWEC2016.ddy', has an unexpected file extension. Was expecting 'idf'.\n[openstudio.weather.Model] <0> Could not find ground temperatures; will use generic temperatures, which will skew results.\n[openstudio.EpwFile] <0> Successive data points (2009-Jan-31 to 2004-Feb-01, ending on line 753) are greater than 1 day apart in EPW file '/usr/local/lib/ruby/gems/2.2.0/bundler/gems/openstudio-standards-b33bde241549/data/weather/CAN_NT_Yellowknife.AP.719360_CWEC2016.epw'. Data will be treated as typical (TMY)\n[openstudio.setFileExtension] <0> Path p, '/usr/local/lib/ruby/gems/2.2.0/bundler/gems/openstudio-standards-b33bde241549/data/weather/CAN_NT_Yellowknife.AP.719360_CWEC2016.ddy', has an unexpected file extension. Was expecting 'idf'.\n[openstudio.setFileExtension] <0> Path p, '/usr/local/lib/ruby/gems/2.2.0/bundler/gems/openstudio-standards-b33bde241549/data/weather/CAN_NT_Yellowknife.AP.719360_CWEC2016.ddy', has an unexpected file extension. Was expecting 'idf'.\n[openstudio.EpwFile] <0> Successive data points (2009-Jan-31 to 2004-Feb-01, ending on line 753) are greater than 1 day apart in EPW file '/usr/local/lib/ruby/gems/2.2.0/bundler/gems/openstudio-standards-b33bde241549/data/weather/CAN_NT_Yellowknife.AP.719360_CWEC2016.epw'. Data will be treated as typical (TMY)\n[openstudio.setFileExtension] <0> Path p, '/usr/local/lib/ruby/gems/2.2.0/bundler/gems/openstudio-standards-b33bde241549/data/weather/CAN_NT_Yellowknife.AP.719360_CWEC2016.ddy', has an unexpected file extension. Was expecting 'idf'.\n[openstudio.setFileExtension] <0> Path p, '/usr/local/lib/ruby/gems/2.2.0/bundler/gems/openstudio-standards-b33bde241549/data/weather/CAN_NT_Yellowknife.AP.719360_CWEC2016.ddy', has an unexpected file extension. Was expecting 'idf'.\n[utilities.idf.WorkspaceObject] <0> Object of type 'Schedule:Constant' and named 'Always Off Discrete', points to an object named OnOff 1 from field 1, but that object cannot be located.\n[utilities.idf.WorkspaceObject] <0> Object of type 'Schedule:Constant' and named 'Always On Continuous', points to an object named Fractional 1 from field 1, but that object cannot be located.\n[openstudio.EpwFile] <0> Successive data points (2009-Jan-31 to 2004-Feb-01, ending on line 753) are greater than 1 day apart in EPW file '/usr/local/lib/ruby/gems/2.2.0/bundler/gems/openstudio-standards-b33bde241549/data/weather/CAN_NT_Yellowknife.AP.719360_CWEC2016.epw'. Data will be treated as typical (TMY)\n[openstudio.setFileExtension] <0> Path p, '/usr/local/lib/ruby/gems/2.2.0/bundler/gems/openstudio-standards-b33bde241549/data/weather/CAN_NT_Yellowknife.AP.719360_CWEC2016.ddy', has an unexpected file extension. Was expecting 'idf'.\n[openstudio.setFileExtension] <0> Path p, '/usr/local/lib/ruby/gems/2.2.0/bundler/gems/openstudio-standards-b33bde241549/data/weather/CAN_NT_Yellowknife.AP.719360_CWEC2016.ddy', has an unexpected file extension. Was expecting 'idf'.\n[openstudio.EpwFile] <0> Successive data points (2009-Jan-31 to 2004-Feb-01, ending on line 753) are greater than 1 day apart in EPW file '/usr/local/lib/ruby/gems/2.2.0/bundler/gems/openstudio-standards-b33bde241549/data/weather/CAN_NT_Yellowknife.AP.719360_CWEC2016.epw'. Data will be treated as typical (TMY)\n[openstudio.setFileExtension] <0> Path p, '/usr/local/lib/ruby/gems/2.2.0/bundler/gems/openstudio-standards-b33bde241549/data/weather/CAN_NT_Yellowknife.AP.719360_CWEC2016.ddy', has an unexpected file extension. Was expecting 'idf'.\n[openstudio.setFileExtension] <0> Path p, '/usr/local/lib/ruby/gems/2.2.0/bundler/gems/openstudio-standards-b33bde241549/data/weather/CAN_NT_Yellowknife.AP.719360_CWEC2016.ddy', has an unexpected file extension. Was expecting 'idf'.\n[utilities.idf.WorkspaceObject] <0> Object of type 'Schedule:Constant' and named 'Always Off Discrete', points to an object named OnOff 1 from field 1, but that object cannot be located.\n[utilities.idf.WorkspaceObject] <0> Object of type 'Schedule:Constant' and named 'Always On Continuous', points to an object named Fractional 1 from field 1, but that object cannot be located.\n[openstudio.standards.Fan] <0> For Fan Constant Volume 1, there is no greater nominal HP.  Use the efficiency of the largest motor category.\n[openstudio.standards.Fan] <0> For Fan Constant Volume 2, there is no greater nominal HP.  Use the efficiency of the largest motor category.\n[openstudio.EpwFile] <0> Successive data points (2009-Jan-31 to 2004-Feb-01, ending on line 753) are greater than 1 day apart in EPW file '/usr/local/lib/ruby/gems/2.2.0/bundler/gems/openstudio-standards-b33bde241549/data/weather/CAN_NT_Yellowknife.AP.719360_CWEC2016.epw'. Data will be treated as typical (TMY)\n[openstudio.setFileExtension] <0> Path p, '/usr/local/lib/ruby/gems/2.2.0/bundler/gems/openstudio-standards-b33bde241549/data/weather/CAN_NT_Yellowknife.AP.719360_CWEC2016.ddy', has an unexpected file extension. Was expecting 'idf'.\n[openstudio.setFileExtension] <0> Path p, '/usr/local/lib/ruby/gems/2.2.0/bundler/gems/openstudio-standards-b33bde241549/data/weather/CAN_NT_Yellowknife.AP.719360_CWEC2016.ddy', has an unexpected file extension. Was expecting 'idf'.\n[openstudio.EpwFile] <0> Successive data points (2009-Jan-31 to 2004-Feb-01, ending on line 753) are greater than 1 day apart in EPW file '/usr/local/lib/ruby/gems/2.2.0/bundler/gems/openstudio-standards-b33bde241549/data/weather/CAN_NT_Yellowknife.AP.719360_CWEC2016.epw'. Data will be treated as typical (TMY)\n[openstudio.setFileExtension] <0> Path p, '/usr/local/lib/ruby/gems/2.2.0/bundler/gems/openstudio-standards-b33bde241549/data/weather/CAN_NT_Yellowknife.AP.719360_CWEC2016.ddy', has an unexpected file extension. Was expecting 'idf'.\n[openstudio.setFileExtension] <0> Path p, '/usr/local/lib/ruby/gems/2.2.0/bundler/gems/openstudio-standards-b33bde241549/data/weather/CAN_NT_Yellowknife.AP.719360_CWEC2016.ddy', has an unexpected file extension. Was expecting 'idf'.\n[openstudio.standards.Fan] <0> For Fan Constant Volume 1, there is no greater nominal HP.  Use the efficiency of the largest motor category.\n[openstudio.standards.Fan] <0> For Fan Constant Volume 2, there is no greater nominal HP.  Use the efficiency of the largest motor category.\n[utilities.idf.WorkspaceObject] <0> Object of type 'Schedule:Constant' and named 'Always Off Discrete', points to an object named OnOff 1 from field 1, but that object cannot be located.\n[utilities.idf.WorkspaceObject] <0> Object of type 'Schedule:Constant' and named 'Always On Continuous', points to an object named Fractional 1 from field 1, but that object cannot be located.\n",
        "step_errors": [],
        "step_files": [],
        "step_info": [
          "Loaded space type map from model",
          "Finished adding geometry",
          "Started adding weather file for climate zone: NECB HDD Method.",
          "Started applying space types (loads)",
          "Space Function - undefined - had no ventilation specification, one has been created.",
          "Space Function - undefined - had no infiltration objects, one has been created.",
          "Space Function - undefined - set infiltration to 0.0 per ft^2 exterior surface area.",
          "Space Function - undefined - set infiltration schedule to Always On.",
          "Space Function Dining area - bar lounge/leisure dining had no people, one has been created.",
          "Space Function Dining area - bar lounge/leisure dining set occupancy to 9.29368029739777 people/1000 ft^2.",
          "Space Function Dining area - bar lounge/leisure dining had no lights, one has been created.",
          "Space Function Dining area - bar lounge/leisure dining set LPD to 0.929023 W/ft^2.",
          "Space Function Dining area - bar lounge/leisure dining had no electric equipment, one has been created.",
          "Space Function Dining area - bar lounge/leisure dining set electric EPD to 0.0929368029739777 W/ft^2.",
          "Space Function Dining area - bar lounge/leisure dining had no ventilation specification, one has been created.",
          "Space Function Dining area - bar lounge/leisure dining set ventilation per area to 0.705 cfm/ft^2.",
          "Space Function Dining area - bar lounge/leisure dining had no infiltration objects, one has been created.",
          "Space Function Dining area - bar lounge/leisure dining set infiltration to 0.0 per ft^2 exterior surface area.",
          "Space Function Dining area - bar lounge/leisure dining set occupancy schedule to NECB-B-Occupancy.",
          "Space Function Dining area - bar lounge/leisure dining set occupant activity schedule to NECB-Activity.",
          "Space Function Dining area - bar lounge/leisure dining set lighting schedule to OS:Schedule:Ruleset,\n  {b4f3f052-c624-4c82-9ddb-24199673dd78}, !- Handle\n  NECB-B-Occupancy-NECB-B-Lighting-0.0-0.0-0.67-Light Ruleset, !- Name\n  {3c5dfcca-50b0-46a6-a672-21aabefedcaf}, !- Schedule Type Limits Name\n  {ceeb56f8-9f93-486a-9140-7690efcc1124}; !- Default Day Schedule Name\n\n.",
          "Space Function Dining area - bar lounge/leisure dining set electric equipment schedule to NECB-B-Electric-Equipment.",
          "Space Function Dining area - bar lounge/leisure dining set infiltration schedule to Always On.",
          "Space Function Dining area - bar lounge/leisure dining set heating setpoint schedule to NECB-B-Thermostat Setpoint-Heating.",
          "Space Function Dining area - bar lounge/leisure dining set cooling setpoint schedule to NECB-B-Thermostat Setpoint-Cooling.",
          "Space Function Food preparation area had no people, one has been created.",
          "Space Function Food preparation area set occupancy to 4.646840148698885 people/1000 ft^2.",
          "Space Function Food preparation area had no lights, one has been created.",
          "Space Function Food preparation area set LPD to 1.059086 W/ft^2.",
          "Space Function Food preparation area had no electric equipment, one has been created.",
          "Space Function Food preparation area set electric EPD to 0.929368029739777 W/ft^2.",
          "Space Function Food preparation area had no ventilation specification, one has been created.",
          "Space Function Food preparation area set ventilation per area to 0.27 cfm/ft^2.",
          "Space Function Food preparation area had no infiltration objects, one has been created.",
          "Space Function Food preparation area set infiltration to 0.0 per ft^2 exterior surface area.",
          "Space Function Food preparation area set occupancy schedule to NECB-B-Occupancy.",
          "Space Function Food preparation area set occupant activity schedule to NECB-Activity.",
          "Space Function Food preparation area set lighting schedule to OS:Schedule:Ruleset,\n  {b4f3f052-c624-4c82-9ddb-24199673dd78}, !- Handle\n  NECB-B-Occupancy-NECB-B-Lighting-0.0-0.0-0.67-Light Ruleset, !- Name\n  {3c5dfcca-50b0-46a6-a672-21aabefedcaf}, !- Schedule Type Limits Name\n  {ceeb56f8-9f93-486a-9140-7690efcc1124}; !- Default Day Schedule Name\n\n.",
          "Space Function Food preparation area set electric equipment schedule to NECB-B-Electric-Equipment.",
          "Space Function Food preparation area set infiltration schedule to Always On.",
          "Space Function Food preparation area set heating setpoint schedule to NECB-B-Thermostat Setpoint-Heating.",
          "Space Function Food preparation area set cooling setpoint schedule to NECB-B-Thermostat Setpoint-Cooling.",
          "Finished applying space types (loads)",
          "Started applying constructions",
          "Finished applying constructions",
          "Started creating thermal zones",
          "Finished creating thermal zones",
          "This building has no exposed ceilings adjacent to spaces that are not attics or plenums.  No skylights will be added.",
          "Running simulation /mnt/openstudio/analysis_63796a5d-cec7-494a-9e67-4109aa458616/data_point_1575f484-2684-4ef5-93f6-b23e01bcf40b/run/000_btap_create_necb_prototype_building/output/QuickServiceRestaurant-NECB2017-CAN_NT_Yellowknife.AP.719360_CWEC2016.epw/SR0.",
          "Finished run.",
          "Started Adding HVAC",
          "Finished adding HVAC",
          "Started Adding Service Water Heating",
          "Adding service water loop",
          "Adding water heater",
          "Finished adding Service Water Heating",
          "Set sizing factors to 1.3 for heating and 1.3 for cooling.",
          "Running simulation /mnt/openstudio/analysis_63796a5d-cec7-494a-9e67-4109aa458616/data_point_1575f484-2684-4ef5-93f6-b23e01bcf40b/run/000_btap_create_necb_prototype_building/output/QuickServiceRestaurant-NECB2017-CAN_NT_Yellowknife.AP.719360_CWEC2016.epw/SR1.",
          "Finished run.",
          "Started applying prototype HVAC assumptions.",
          "For Fan Constant Volume 1: allowed_hp = 1.01HP; motor eff = 61.5%; total fan eff = 40% based on 782 cfm.",
          "For Fan Constant Volume 2: allowed_hp = 1.01HP; motor eff = 61.5%; total fan eff = 40% based on 882 cfm.",
          "Sys_3_PSZ Sp-Dining Sys-3 Flr-1 Sch-B HPlcmt-south ZN does not require an economizer because the total cooling capacity of 23500 Btu/hr is less than the minimum capacity of 68243 Btu/hr.",
          "Sys_3_PSZ Sp-Kitchen Sys-3 Flr-1 Sch-B HPlcmt-north ZN does not require an economizer because the total cooling capacity of 20854 Btu/hr is less than the minimum capacity of 68243 Btu/hr.",
          "Finished applying prototype HVAC assumptions.",
          "Started applying HVAC efficiency standards.",
          "For Sys_3_PSZ Sp-Dining Sys-3 Flr-1 Sch-B HPlcmt-south ZN ERV, ERV power is calculated to be 349 W, based on a min OA flow of 882 cfm.",
          "For Sys_3_PSZ Sp-Dining Sys-3 Flr-1 Sch-B HPlcmt-south ZN: No special economizer controls were modeled.",
          "For NECB2017 NECB HDD Method:  Sys_3_PSZ Sp-Dining Sys-3 Flr-1 Sch-B HPlcmt-south ZN: DCV is not required for any system.",
          "For Sys_3_PSZ Sp-Dining Sys-3 Flr-1 Sch-B HPlcmt-south ZN: Annual occupied hours = 5421 hr/yr, assuming a 0.15 occupancy threshold.  This schedule will be used as the HVAC operation schedule.",
          "For Sys_3_PSZ Sp-Dining Sys-3 Flr-1 Sch-B HPlcmt-south ZN: Setting motorized OA damper schedule to Sys_3_PSZ Sp-Dining Sys-3 Flr-1 Sch-B HPlcmt-south ZN Occ Sch.",
          "For Sys_3_PSZ Sp-Kitchen Sys-3 Flr-1 Sch-B HPlcmt-north ZN ERV, ERV power is calculated to be 164 W, based on a min OA flow of 338 cfm.",
          "For Sys_3_PSZ Sp-Kitchen Sys-3 Flr-1 Sch-B HPlcmt-north ZN: No special economizer controls were modeled.",
          "For NECB2017 NECB HDD Method:  Sys_3_PSZ Sp-Kitchen Sys-3 Flr-1 Sch-B HPlcmt-north ZN: DCV is not required for any system.",
          "For Sys_3_PSZ Sp-Kitchen Sys-3 Flr-1 Sch-B HPlcmt-north ZN: Annual occupied hours = 5421 hr/yr, assuming a 0.15 occupancy threshold.  This schedule will be used as the HVAC operation schedule.",
          "For Sys_3_PSZ Sp-Kitchen Sys-3 Flr-1 Sch-B HPlcmt-north ZN: Setting motorized OA damper schedule to Sys_3_PSZ Sp-Kitchen Sys-3 Flr-1 Sch-B HPlcmt-north ZN Occ Sch.",
          "For Fan Constant Volume 1: motor nameplate = 0.48730596986208674HP, motor eff = 61.5%.",
          "For Fan Constant Volume 2: motor nameplate = 0.5491362657668144HP, motor eff = 61.5%.",
          "For Service Water Loop Pump: brake hp = 0.0HP, motor nameplate = 0.1HP, motor eff = 70.0%.",
          "For Pump Variable Speed 1: brake hp = 0.05HP, motor nameplate = 0.1HP, motor eff = 70.0%.",
          "For NECB2017: Coil Cooling DX Single Speed 1: AirCooled Electric Resistance or None Single Package Capacity = 21kBtu/hr; SEER = 14.0",
          "For NECB2017: Coil Cooling DX Single Speed 2: AirCooled Electric Resistance or None Single Package Capacity = 24kBtu/hr; SEER = 14.0",
          "For NECB2017: Primary Boiler: Oil Hot Water Capacity = 36kBtu/hr; AFUE = 0.847",
          "For NECB2017: Secondary Boiler: Oil Hot Water Capacity = 0kBtu/hr; AFUE = 0.847",
          "For NECB2017: 16gal Electricity Water Heater - 11kBtu/hr 1.0 Therm Eff; thermal efficiency = 1.0, skin-loss UA = 3Btu/hr",
          "For Sys_3_PSZ Sp-Kitchen Sys-3 Flr-1 Sch-B HPlcmt-north ZN ERV: Set sensible and latent effectiveness to 50%.",
          "For Sys_3_PSZ Sp-Dining Sys-3 Flr-1 Sch-B HPlcmt-south ZN ERV: Set sensible and latent effectiveness to 50%.",
          "Finished applying HVAC efficiency standards.",
          "Started adding daylighting controls.",
          "For attic, daylighting control not applicable because no exterior fenestration is present.",
          "Finished adding daylighting controls.",
          "Running simulation /mnt/openstudio/analysis_63796a5d-cec7-494a-9e67-4109aa458616/data_point_1575f484-2684-4ef5-93f6-b23e01bcf40b/run/000_btap_create_necb_prototype_building/output/QuickServiceRestaurant-NECB2017-CAN_NT_Yellowknife.AP.719360_CWEC2016.epw/SR2.",
          "Finished run.",
          "Total Time = 171sec."
        ],
        "step_result": "Success",
        "step_values": [
          {
            "name": "building_type",
            "value": "QuickServiceRestaurant"
          },
          {
            "name": "template",
            "value": "NECB2017"
          },
          {
            "name": "epw_file",
            "value": "CAN_NT_Yellowknife.AP.719360_CWEC2016.epw"
          },
          {
            "name": "new_auto_zoner",
            "value": false
          }
        ],
        "step_warnings": [
          "[openstudio.EpwFile] Successive data points (2009-Jan-31 to 2004-Feb-01, ending on line 753) are greater than 1 day apart in EPW file '/usr/local/lib/ruby/gems/2.2.0/bundler/gems/openstudio-standards-b33bde241549/data/weather/CAN_NT_Yellowknife.AP.719360_CWEC2016.epw'. Data will be treated as typical (TMY)",
          "[openstudio.EpwFile] Successive data points (2009-Jan-31 to 2004-Feb-01, ending on line 753) are greater than 1 day apart in EPW file '/usr/local/lib/ruby/gems/2.2.0/bundler/gems/openstudio-standards-b33bde241549/data/weather/CAN_NT_Yellowknife.AP.719360_CWEC2016.epw'. Data will be treated as typical (TMY)",
          "[openstudio.weather.Model] Could not find ground temperatures; will use generic temperatures, which will skew results.",
          "[openstudio.EpwFile] Successive data points (2009-Jan-31 to 2004-Feb-01, ending on line 753) are greater than 1 day apart in EPW file '/usr/local/lib/ruby/gems/2.2.0/bundler/gems/openstudio-standards-b33bde241549/data/weather/CAN_NT_Yellowknife.AP.719360_CWEC2016.epw'. Data will be treated as typical (TMY)",
          "[openstudio.EpwFile] Successive data points (2009-Jan-31 to 2004-Feb-01, ending on line 753) are greater than 1 day apart in EPW file '/usr/local/lib/ruby/gems/2.2.0/bundler/gems/openstudio-standards-b33bde241549/data/weather/CAN_NT_Yellowknife.AP.719360_CWEC2016.epw'. Data will be treated as typical (TMY)",
          "[openstudio.EpwFile] Successive data points (2009-Jan-31 to 2004-Feb-01, ending on line 753) are greater than 1 day apart in EPW file '/usr/local/lib/ruby/gems/2.2.0/bundler/gems/openstudio-standards-b33bde241549/data/weather/CAN_NT_Yellowknife.AP.719360_CWEC2016.epw'. Data will be treated as typical (TMY)",
          "[openstudio.EpwFile] Successive data points (2009-Jan-31 to 2004-Feb-01, ending on line 753) are greater than 1 day apart in EPW file '/usr/local/lib/ruby/gems/2.2.0/bundler/gems/openstudio-standards-b33bde241549/data/weather/CAN_NT_Yellowknife.AP.719360_CWEC2016.epw'. Data will be treated as typical (TMY)",
          "[openstudio.standards.Fan] For Fan Constant Volume 1, there is no greater nominal HP.  Use the efficiency of the largest motor category.",
          "[openstudio.standards.Fan] For Fan Constant Volume 2, there is no greater nominal HP.  Use the efficiency of the largest motor category.",
          "[openstudio.EpwFile] Successive data points (2009-Jan-31 to 2004-Feb-01, ending on line 753) are greater than 1 day apart in EPW file '/usr/local/lib/ruby/gems/2.2.0/bundler/gems/openstudio-standards-b33bde241549/data/weather/CAN_NT_Yellowknife.AP.719360_CWEC2016.epw'. Data will be treated as typical (TMY)",
          "[openstudio.EpwFile] Successive data points (2009-Jan-31 to 2004-Feb-01, ending on line 753) are greater than 1 day apart in EPW file '/usr/local/lib/ruby/gems/2.2.0/bundler/gems/openstudio-standards-b33bde241549/data/weather/CAN_NT_Yellowknife.AP.719360_CWEC2016.epw'. Data will be treated as typical (TMY)",
          "[openstudio.standards.Fan] For Fan Constant Volume 1, there is no greater nominal HP.  Use the efficiency of the largest motor category.",
          "[openstudio.standards.Fan] For Fan Constant Volume 2, there is no greater nominal HP.  Use the efficiency of the largest motor category."
        ]
      }
    },
    {
      "arguments": {
        "necb_template": "NECB2017",
        "surface_type": "Walls",
        "zone4_u_value": 0.29,
        "zone5_u_value": 0.265,
        "zone6_u_value": 0.24,
        "zone7A_u_value": 0.215,
        "zone7B_u_value": 0.19,
        "zone8_u_value": 0.165
      },
      "description": "Modifies walls, roofs, and windows conductance by climate zone.",
      "measure_dir_name": "btap_set_envelope_conductance_by_necb_climate_zone",
      "name": "btap_set_envelope_conductance_by_necb_climate_zone",
      "result": {
        "completed_at": "20190221T164948Z",
        "measure_class_name": "BtapSetEnvelopeConductanceByNecbClimateZone",
        "measure_display_name": "BTAPSetEnvelopeConductanceByNecbClimateZone",
        "measure_name": "btap_set_envelope_conductance_by_necb_climate_zone",
        "measure_taxonomy": "Envelope.Opaque",
        "measure_type": "ModelMeasure",
        "measure_uid": "36fd01e8-5fcf-4fec-9117-90bf8d4071fc",
        "measure_version_id": "640ec217-f62b-42fb-ab95-8ed4a5972bba",
        "measure_version_modified": "20190214T214035Z",
        "measure_xml_checksum": "A51D361F",
        "started_at": "20190221T164943Z",
        "stderr": "",
        "stdout": "[openstudio.EpwFile] <0> Successive data points (2009-Jan-31 to 2004-Feb-01, ending on line 753) are greater than 1 day apart in EPW file '/usr/local/lib/ruby/gems/2.2.0/bundler/gems/openstudio-standards-b33bde241549/data/weather/CAN_NT_Yellowknife.AP.719360_CWEC2016.epw'. Data will be treated as typical (TMY)\n[openstudio.setFileExtension] <0> Path p, '/usr/local/lib/ruby/gems/2.2.0/bundler/gems/openstudio-standards-b33bde241549/data/weather/CAN_NT_Yellowknife.AP.719360_CWEC2016.ddy', has an unexpected file extension. Was expecting 'idf'.\n[openstudio.setFileExtension] <0> Path p, '/usr/local/lib/ruby/gems/2.2.0/bundler/gems/openstudio-standards-b33bde241549/data/weather/CAN_NT_Yellowknife.AP.719360_CWEC2016.ddy', has an unexpected file extension. Was expecting 'idf'.\n",
        "step_errors": [],
        "step_files": [],
        "step_info": [
          "The Weather File NECB hdd is '8170.0'.",
          "The selected surface type is 'Walls' So the conductance of walls only will be changed.",
          "Initial conductance for Wall was : 0.18299999999999986 , now it has been changed to 0.16499999999999987 ",
          "Initial conductance for Wall was : 0.18299999999999986 , now it has been changed to 0.16499999999999987 ",
          "Initial conductance for Wall was : 0.18299999999999986 , now it has been changed to 0.16499999999999987 ",
          "Initial conductance for Wall was : 0.18299999999999986 , now it has been changed to 0.16499999999999987 ",
          "Initial conductance for Wall was : 0.18299999999999986 , now it has been changed to 0.16499999999999987 ",
          "Initial conductance for Wall was : 0.18299999999999986 , now it has been changed to 0.16499999999999987 "
        ],
        "step_result": "Success",
        "step_values": [
          {
            "name": "necb_template",
            "value": "NECB2017"
          },
          {
            "name": "surface_type",
            "value": "Walls"
          },
          {
            "name": "zone4_u_value",
            "value": 0.29
          },
          {
            "name": "zone5_u_value",
            "value": 0.265
          },
          {
            "name": "zone6_u_value",
            "value": 0.24
          },
          {
            "name": "zone7A_u_value",
            "value": 0.215
          },
          {
            "name": "zone7B_u_value",
            "value": 0.19
          },
          {
            "name": "zone8_u_value",
            "value": 0.165
          },
          {
            "name": "necb_template",
            "value": "NECB2017"
          },
          {
            "name": "surface_type",
            "value": "Walls"
          },
          {
            "name": "zone4_u_value",
            "value": 0.29
          },
          {
            "name": "zone5_u_value",
            "value": 0.265
          },
          {
            "name": "zone6_u_value",
            "value": 0.24
          },
          {
            "name": "zone7A_u_value",
            "value": 0.215
          },
          {
            "name": "zone7B_u_value",
            "value": 0.19
          },
          {
            "name": "zone8_u_value",
            "value": 0.165
          }
        ],
        "step_warnings": []
      }
    },
    {
      "arguments": {
        "necb_template": "NECB2017",
        "surface_type": "Roofs",
        "zone4_u_value": 0.164,
        "zone5_u_value": 0.156,
        "zone6_u_value": 0.138,
        "zone7A_u_value": 0.121,
        "zone7B_u_value": 0.117,
        "zone8_u_value": 0.11
      },
      "description": "Modifies walls, roofs, and windows conductance by climate zone.",
      "measure_dir_name": "btap_set_envelope_conductance_by_necb_climate_zone",
      "name": "btap_set_envelope_conductance_by_necb_climate_zone_2",
      "result": {
        "completed_at": "20190221T164952Z",
        "measure_class_name": "BtapSetEnvelopeConductanceByNecbClimateZone",
        "measure_display_name": "BTAPSetEnvelopeConductanceByNecbClimateZone",
        "measure_name": "btap_set_envelope_conductance_by_necb_climate_zone",
        "measure_taxonomy": "Envelope.Opaque",
        "measure_type": "ModelMeasure",
        "measure_uid": "36fd01e8-5fcf-4fec-9117-90bf8d4071fc",
        "measure_version_id": "640ec217-f62b-42fb-ab95-8ed4a5972bba",
        "measure_version_modified": "20190214T214035Z",
        "measure_xml_checksum": "A51D361F",
        "started_at": "20190221T164948Z",
        "stderr": "",
        "stdout": "[openstudio.EpwFile] <0> Successive data points (2009-Jan-31 to 2004-Feb-01, ending on line 753) are greater than 1 day apart in EPW file '/usr/local/lib/ruby/gems/2.2.0/bundler/gems/openstudio-standards-b33bde241549/data/weather/CAN_NT_Yellowknife.AP.719360_CWEC2016.epw'. Data will be treated as typical (TMY)\n[openstudio.setFileExtension] <0> Path p, '/usr/local/lib/ruby/gems/2.2.0/bundler/gems/openstudio-standards-b33bde241549/data/weather/CAN_NT_Yellowknife.AP.719360_CWEC2016.ddy', has an unexpected file extension. Was expecting 'idf'.\n[openstudio.setFileExtension] <0> Path p, '/usr/local/lib/ruby/gems/2.2.0/bundler/gems/openstudio-standards-b33bde241549/data/weather/CAN_NT_Yellowknife.AP.719360_CWEC2016.ddy', has an unexpected file extension. Was expecting 'idf'.\n",
        "step_errors": [],
        "step_files": [],
        "step_info": [
          "The Weather File NECB hdd is '8170.0'.",
          "The selected surface type is 'Roofs' So the conductance of roofs only will be changed.to 0.11 ............. ",
          "Initial conductance for RoofCeiling was : 0.12100000000000004 , now it has been changed to 0.10999999999999999 ",
          "Initial conductance for RoofCeiling was : 0.12100000000000004 , now it has been changed to 0.10999999999999999 ",
          "Initial conductance for RoofCeiling was : 0.12100000000000004 , now it has been changed to 0.10999999999999999 ",
          "Initial conductance for RoofCeiling was : 0.12100000000000004 , now it has been changed to 0.10999999999999999 "
        ],
        "step_result": "Success",
        "step_values": [
          {
            "name": "necb_template",
            "value": "NECB2017"
          },
          {
            "name": "surface_type",
            "value": "Roofs"
          },
          {
            "name": "zone4_u_value",
            "value": 0.164
          },
          {
            "name": "zone5_u_value",
            "value": 0.156
          },
          {
            "name": "zone6_u_value",
            "value": 0.138
          },
          {
            "name": "zone7A_u_value",
            "value": 0.121
          },
          {
            "name": "zone7B_u_value",
            "value": 0.117
          },
          {
            "name": "zone8_u_value",
            "value": 0.11
          },
          {
            "name": "necb_template",
            "value": "NECB2017"
          },
          {
            "name": "surface_type",
            "value": "Roofs"
          },
          {
            "name": "zone4_u_value",
            "value": 0.164
          },
          {
            "name": "zone5_u_value",
            "value": 0.156
          },
          {
            "name": "zone6_u_value",
            "value": 0.138
          },
          {
            "name": "zone7A_u_value",
            "value": 0.121
          },
          {
            "name": "zone7B_u_value",
            "value": 0.117
          },
          {
            "name": "zone8_u_value",
            "value": 0.11
          }
        ],
        "step_warnings": []
      }
    },
    {
      "arguments": {
        "necb_template": "NECB2017",
        "surface_type": "Floors",
        "zone4_u_value": 0.193,
        "zone5_u_value": 0.175,
        "zone6_u_value": 0.156,
        "zone7A_u_value": 0.138,
        "zone7B_u_value": 0.121,
        "zone8_u_value": 0.117
      },
      "description": "Modifies walls, roofs, and windows conductance by climate zone.",
      "measure_dir_name": "btap_set_envelope_conductance_by_necb_climate_zone",
      "name": "btap_set_envelope_conductance_by_necb_climate_zone_2_2",
      "result": {
        "completed_at": "20190221T164957Z",
        "measure_class_name": "BtapSetEnvelopeConductanceByNecbClimateZone",
        "measure_display_name": "BTAPSetEnvelopeConductanceByNecbClimateZone",
        "measure_name": "btap_set_envelope_conductance_by_necb_climate_zone",
        "measure_taxonomy": "Envelope.Opaque",
        "measure_type": "ModelMeasure",
        "measure_uid": "36fd01e8-5fcf-4fec-9117-90bf8d4071fc",
        "measure_version_id": "640ec217-f62b-42fb-ab95-8ed4a5972bba",
        "measure_version_modified": "20190214T214035Z",
        "measure_xml_checksum": "A51D361F",
        "started_at": "20190221T164952Z",
        "stderr": "",
        "stdout": "[openstudio.EpwFile] <0> Successive data points (2009-Jan-31 to 2004-Feb-01, ending on line 753) are greater than 1 day apart in EPW file '/usr/local/lib/ruby/gems/2.2.0/bundler/gems/openstudio-standards-b33bde241549/data/weather/CAN_NT_Yellowknife.AP.719360_CWEC2016.epw'. Data will be treated as typical (TMY)\n[openstudio.setFileExtension] <0> Path p, '/usr/local/lib/ruby/gems/2.2.0/bundler/gems/openstudio-standards-b33bde241549/data/weather/CAN_NT_Yellowknife.AP.719360_CWEC2016.ddy', has an unexpected file extension. Was expecting 'idf'.\n[openstudio.setFileExtension] <0> Path p, '/usr/local/lib/ruby/gems/2.2.0/bundler/gems/openstudio-standards-b33bde241549/data/weather/CAN_NT_Yellowknife.AP.719360_CWEC2016.ddy', has an unexpected file extension. Was expecting 'idf'.\n",
        "step_errors": [],
        "step_files": [],
        "step_info": [
          "The Weather File NECB hdd is '8170.0'.",
          "The selected surface type is 'Floors' So the conductance of floors only will be changed."
        ],
        "step_result": "Success",
        "step_values": [
          {
            "name": "necb_template",
            "value": "NECB2017"
          },
          {
            "name": "surface_type",
            "value": "Floors"
          },
          {
            "name": "zone4_u_value",
            "value": 0.193
          },
          {
            "name": "zone5_u_value",
            "value": 0.175
          },
          {
            "name": "zone6_u_value",
            "value": 0.156
          },
          {
            "name": "zone7A_u_value",
            "value": 0.138
          },
          {
            "name": "zone7B_u_value",
            "value": 0.121
          },
          {
            "name": "zone8_u_value",
            "value": 0.117
          },
          {
            "name": "necb_template",
            "value": "NECB2017"
          },
          {
            "name": "surface_type",
            "value": "Floors"
          },
          {
            "name": "zone4_u_value",
            "value": 0.193
          },
          {
            "name": "zone5_u_value",
            "value": 0.175
          },
          {
            "name": "zone6_u_value",
            "value": 0.156
          },
          {
            "name": "zone7A_u_value",
            "value": 0.138
          },
          {
            "name": "zone7B_u_value",
            "value": 0.121
          },
          {
            "name": "zone8_u_value",
            "value": 0.117
          }
        ],
        "step_warnings": []
      }
    },
    {
      "arguments": {
        "necb_template": "NECB2017",
        "surface_type": "Glazing",
        "zone4_u_value": 1.9,
        "zone5_u_value": 1.8,
        "zone6_u_value": 1.7,
        "zone7A_u_value": 1.5,
        "zone7B_u_value": 1.4,
        "zone8_u_value": 1.3
      },
      "description": "Modifies walls, roofs, and windows conductance by climate zone.",
      "measure_dir_name": "btap_set_envelope_conductance_by_necb_climate_zone",
      "name": "btap_set_envelope_conductance_by_necb_climate_zone_2_2_2",
      "result": {
        "completed_at": "20190221T165001Z",
        "measure_class_name": "BtapSetEnvelopeConductanceByNecbClimateZone",
        "measure_display_name": "BTAPSetEnvelopeConductanceByNecbClimateZone",
        "measure_name": "btap_set_envelope_conductance_by_necb_climate_zone",
        "measure_taxonomy": "Envelope.Opaque",
        "measure_type": "ModelMeasure",
        "measure_uid": "36fd01e8-5fcf-4fec-9117-90bf8d4071fc",
        "measure_version_id": "640ec217-f62b-42fb-ab95-8ed4a5972bba",
        "measure_version_modified": "20190214T214035Z",
        "measure_xml_checksum": "A51D361F",
        "started_at": "20190221T164957Z",
        "stderr": "",
        "stdout": "[openstudio.EpwFile] <0> Successive data points (2009-Jan-31 to 2004-Feb-01, ending on line 753) are greater than 1 day apart in EPW file '/usr/local/lib/ruby/gems/2.2.0/bundler/gems/openstudio-standards-b33bde241549/data/weather/CAN_NT_Yellowknife.AP.719360_CWEC2016.epw'. Data will be treated as typical (TMY)\n[openstudio.setFileExtension] <0> Path p, '/usr/local/lib/ruby/gems/2.2.0/bundler/gems/openstudio-standards-b33bde241549/data/weather/CAN_NT_Yellowknife.AP.719360_CWEC2016.ddy', has an unexpected file extension. Was expecting 'idf'.\n[openstudio.setFileExtension] <0> Path p, '/usr/local/lib/ruby/gems/2.2.0/bundler/gems/openstudio-standards-b33bde241549/data/weather/CAN_NT_Yellowknife.AP.719360_CWEC2016.ddy', has an unexpected file extension. Was expecting 'idf'.\n",
        "step_errors": [],
        "step_files": [],
        "step_info": [
          "The Weather File NECB hdd is '8170.0'.",
          "Initial conductance for FixedWindow was : 1.4 , now it has been changed to 1.3 ",
          "Initial conductance for FixedWindow was : 1.4 , now it has been changed to 1.3 ",
          "Initial conductance for FixedWindow was : 1.4 , now it has been changed to 1.3 ",
          "Initial conductance for FixedWindow was : 1.4 , now it has been changed to 1.3 ",
          "Initial conductance for FixedWindow was : 1.4 , now it has been changed to 1.3 ",
          "Initial conductance for FixedWindow was : 1.4 , now it has been changed to 1.3 "
        ],
        "step_result": "Success",
        "step_values": [
          {
            "name": "necb_template",
            "value": "NECB2017"
          },
          {
            "name": "surface_type",
            "value": "Glazing"
          },
          {
            "name": "zone4_u_value",
            "value": 1.9
          },
          {
            "name": "zone5_u_value",
            "value": 1.8
          },
          {
            "name": "zone6_u_value",
            "value": 1.7
          },
          {
            "name": "zone7A_u_value",
            "value": 1.5
          },
          {
            "name": "zone7B_u_value",
            "value": 1.4
          },
          {
            "name": "zone8_u_value",
            "value": 1.3
          },
          {
            "name": "necb_template",
            "value": "NECB2017"
          },
          {
            "name": "surface_type",
            "value": "Glazing"
          },
          {
            "name": "zone4_u_value",
            "value": 1.9
          },
          {
            "name": "zone5_u_value",
            "value": 1.8
          },
          {
            "name": "zone6_u_value",
            "value": 1.7
          },
          {
            "name": "zone7A_u_value",
            "value": 1.5
          },
          {
            "name": "zone7B_u_value",
            "value": 1.4
          },
          {
            "name": "zone8_u_value",
            "value": 1.3
          }
        ],
        "step_warnings": []
      }
    },
    {
      "arguments": {
        "generate_hourly_report": "false",
        "output_diet": false
      },
      "description": "This measure creates BTAP result values used for NRCan analyses.",
      "measure_dir_name": "btap_results",
      "name": "btap_results",
      "result": {
        "completed_at": "20190221T165135Z",
        "measure_class_name": "BTAPResults",
        "measure_display_name": "BTAP Results",
        "measure_name": "btap_results",
        "measure_taxonomy": "Reporting.QAQC",
        "measure_type": "ReportingMeasure",
        "measure_uid": "bf37e1c6-de70-457b-a3ac-21aa57b7bc58",
        "measure_version_id": "86fb174b-6040-4a41-8cbe-ab3d1551296a",
        "measure_version_modified": "20181219T170133Z",
        "measure_xml_checksum": "15BF4E57",
        "started_at": "20190221T165104Z",
        "stderr": "",
        "stdout": "[openstudio.EpwFile] <0> Successive data points (2009-Jan-31 to 2004-Feb-01, ending on line 753) are greater than 1 day apart in EPW file '/usr/local/lib/ruby/gems/2.2.0/bundler/gems/openstudio-standards-b33bde241549/data/weather/CAN_NT_Yellowknife.AP.719360_CWEC2016.epw'. Data will be treated as typical (TMY)\n[openstudio.setFileExtension] <0> Path p, '/usr/local/lib/ruby/gems/2.2.0/bundler/gems/openstudio-standards-b33bde241549/data/weather/CAN_NT_Yellowknife.AP.719360_CWEC2016.ddy', has an unexpected file extension. Was expecting 'idf'.\n[openstudio.setFileExtension] <0> Path p, '/usr/local/lib/ruby/gems/2.2.0/bundler/gems/openstudio-standards-b33bde241549/data/weather/CAN_NT_Yellowknife.AP.719360_CWEC2016.ddy', has an unexpected file extension. Was expecting 'idf'.\n[openstudio.EpwFile] <0> Successive data points (2009-Jan-31 to 2004-Feb-01, ending on line 753) are greater than 1 day apart in EPW file '/usr/local/lib/ruby/gems/2.2.0/bundler/gems/openstudio-standards-b33bde241549/data/weather/CAN_NT_Yellowknife.AP.719360_CWEC2016.epw'. Data will be treated as typical (TMY)\n[openstudio.setFileExtension] <0> Path p, '/usr/local/lib/ruby/gems/2.2.0/bundler/gems/openstudio-standards-b33bde241549/data/weather/CAN_NT_Yellowknife.AP.719360_CWEC2016.ddy', has an unexpected file extension. Was expecting 'idf'.\n[openstudio.setFileExtension] <0> Path p, '/usr/local/lib/ruby/gems/2.2.0/bundler/gems/openstudio-standards-b33bde241549/data/weather/CAN_NT_Yellowknife.AP.719360_CWEC2016.ddy', has an unexpected file extension. Was expecting 'idf'.\n",
        "step_errors": [],
        "step_files": [
          "/mnt/openstudio/analysis_63796a5d-cec7-494a-9e67-4109aa458616/data_point_1575f484-2684-4ef5-93f6-b23e01bcf40b/run/005_btap_results/qaqc.json"
        ],
        "step_final_condition": "Saved BTAP results to runner.",
        "step_info": [],
        "step_initial_condition": "Gathering data from EnergyPlus SQL file and OSM model.",
        "step_result": "Success",
        "step_values": [
          {
            "name": "model_osm_zip",
[...]
          },
          {
            "name": "btap_results_json_zip",
            "value": "eJztPWlz2si23/Mruvy+3KlnFO0L7+ZWEYxjavByASeTSVKUkBrTN0JitNhhpvLf3zmtHQQYJ3Y8d8ZViY10+vTZl+6W+OMFIUdBNIli23ft0I0mIb1lEQv8ozY5mirK1KXy0fEG1C0NcyBRkAUlA1lSP4oTlwVVAFnQBVEwHVOa2TNz6qSw1KfhzWrpJTVkpmAJYgrg2jHlw0XJaolyS5aIpLc1qa1I5H9F+EnBpgnzXObfAOgf8Bmu+PaCD/x3wpzPIxreMocOKdCehLYft7qdi8nFePKeel5w99lnMyp0rgRDshRdnHTf9bowoS7Q5R1xQgo0uG1SJ0E12mKVBJjSCXyXxcADdSczLwjCiQ1jJwsZ6JAVkI8qW5pkqhk4/RLTkNWgVFUVDFXTTcVQZBP+MjLY28BLOD+WLgmKYpqGqaimpBl6BuAniykNJ8EM1BOEjEY4Z3avVFgTlLQDyp4Gt3RyEwaJ795ziMduQQ+TxGcxgvqJ5+UkBgvm214mmjiYOJR5CDun7GYe7wFO/6iBAuRXrv0bGtyE9nK+KtU/d134YEqGKIi5evglTSkveGwBqp38DhrjZlcoksWI6qhiHaRzdVRyDYOWYQCMOhRc5SYz24txaQmJH4ccBxhaftWzYwZ+gXPpsqDqSn498G/yGy1JUgVVLViLlrZD49WSplYyhf8+u8GdX3LKISazxHfQ9CYtEL1LZwyNsAVQObNrYOAsKHqOtDWZ2uHEA5pv6EuPsigJaQaAygY/kAxJNTRLbsY1CwIX5EGXdmjzC4h1bWTBEAUvAd06UclBHMSgaZ9OJ04QoXIlU5YMQZLz+eoAkyVYGncXwxRUUZcMFRzCEjUxt8ueR504ZKjGOlpRBe/R5B1gFeSGoKuWroO3KZZoWbnbXtgxhBCPvLGjKvLSzpoASrQl3CWrM21ogqFb5Y/ZAFfFY2i6JkmiqFqWJhpSDk4rXG3Qtn6ziS4/pX9yA/RvIFi/2YTAdtMwCGAb49fuNQ1Ptb0xsrxcG1QaFoSoJKIVu5pD4EYjv/lPJl5dLvwz8Io7YKS57JifhWQPw0wBoZoQu9ejdh1EXMdAf0vYckH9OL0vq4KpraNYg8lxzGw/ykZpgppHiWWyWGaXRUHKyUEeIQT9h6auWMMzTxbMZTPm2A330nEOxPdwlUkIpJl70B2EuHASraKYLrJJFUnQzMbb6aeFgjhkRdCsDCqks5Dd0LBh+htM/DYklKh+PVVyrspsYlkWJE0sf5Rm4A0yNkxjQhPWZB51r9JMXVNFQ5csWVU3DKZmfLKuWaYuSaapSiKkbGWHHVUHyqIpaqomqYqkG6ZhKDuMqzJul41V0UuibmmKpWuyLkuqbhi7DG8Tf2Z/dYyWqomyAQFHU1SjwJgbZU0qoqiLsqaBJEXDABEZ1jZj3Zx7w2YbQNZMtza3qoimbOqqaYoyUKxoWwy6xpyiWZJl6IYmq7IJkttp5dWRmgJGgmNNzRCtwinXDX+Th5r9b97ecIMSBBIY2KdsWLoqabKlitZub9hFbuEgC4rAS6gtKuEzzxWTOyybVAkSYlluVtLAHa99OkcFtsQHfJN5kIQVbJkHYTS1oCo4rvngWiiP0nI946GEqdcLWYUYOE6ytH1nxYO8ABpURWBPNtG9GtIeymNF7XAtpK2DuPYqpQqMSZQlrLhl1bSMbSgBnv/OyMlyFyRn8APVMiBZQ4o2m+RXIagxT84S6jUD1XSc3a1F4BpAzhEUNJICVg4+ohiyaGlbgBvYkcDeJKiIZEmEykM1KhH2lnrQ+JVKCpLYxYr9zva8qNLiSJBMDUmSLE1XDSxzcqfJB4RBMKsOkDUTUqeum5ZkYE+kr8HzxqA6oPCxtG1ZJ2Dt9vp0a7c3sDc0ckU8vg/wHfOhfq8CKVDqQkS1gEEZ01vuG9HnFU8DTdS5W3jGmAj+4k62AWRRYrP1hCwBtm7qCgTuqpjTAZk0dnKWQuZq2d7UriswUxBQbt/QCTbRiQONJfp/Frwmn9M4rWvNtnKPoVKzWvePVIrsVWhu3yAI0dmQfFmilMr+CWXZMHUdygJwU7GMGAWqXBWHkF4Mvs/8hgUGIIKeoOuRpJyVmXuH4UUuo08U1qMR4IziMOG5vQz81bJjBlkPQHhaBIAPGQApQLPYmK7cvB53rlq9L3HrxE4d4YTNZpDbwvb1K6yARTI6e9OFP3VRbLX/IB/5AszHo1f/AgV8zZruHCckpLrHmbX78ZyGC95elHIBiaSiqek0GxAFHvTMwIsfLVjMB3Bh6DUoXESbepTD1cBkqQD7mv316XhDXsHS/i2hB0hqCP7QOqfgh+3rFsgIonv1x6yLCd1ip5x46NUPE1TpazVJ2dMoCJelAIyS/+N7MvcO4kTr3I6ilDdT2eBG13ayk6aeg9nJo85OfvgKxzaFpi57Tz2+CX23dYrxqWQWPHmnnngwPpSxIjzcV1E5Xy8qajvKI8reCXPeS84Lvu04Zk6FwaNF4sVs6THKK5rKjWIdVNZkwTIk3YS8ZSo6VFcVqMKBMLXkq1FFoEqZ5UtYfGEtp2KEl8hptqpFWqRYSCOtKnE5p/my4WjZ4gyQ0SpqieTUC1syGTnzVg0DObvynEXccoKQkl8vqghxUS+eY3hGlGWuYCGkqbvJ7fR3vjBYGcH8GfOyQDqBYnseoHUdgdXcvexlzHeQ7W1jOOJ6zyZXzPyoKKonkTOnbuIhp+XyLIfh9eJ1RHt5M8mVXNz/lP1V+HeD4k/SRcaDNK9oKjq/BoW1CQW5vk/vFhgKlCA8qeGPdJAVpBQSxAU6nNohqa+TEneDhQb7yLCggSjcQCRuIK9zo4hA5/OHWIUoqJL+4y3j6KLXfd163boserH6iFq3XblVLHNUppTqjlp2odUeuObK87u8a4k2/LzZSEnxU43DuJ4BLXAqgjDdeNIEDbpmWZVF3bKghKUtsZYQN8ZwOjLTg7rXFCXRguZRMwxoYWC0uTYaqQci47QPhH8Rr41akHkt2YAwp4iqpliV/FJG4vs52c8sBk35z9nLToPAJZUdBO5ve3wqY2u7U/lB+FCnkjRL+VM5lajt8ypJUPd5FV+veCrHUgRDlEVTVnRdMQzJPMixFLBN3VAsDZciNU2VDnAsDWo1MGnosjSojg1R2+1YL/JPlf24qOC16HGaS5ktjnafMmZvEfPgEuY7FzCHli+He9MBvrS/cNldttRq2w3lrpUre7W7LYgeGEIfoUz5LkXKQ0qUH6D97XF0a2mytzDZV5bsiJ17ImetMTy4HPmWYuQBpUhjS7jhNusFyDPym92Fx/cpOx5SdDxrNymLjb2lxj0KjcdylX0FxreUFw8oLtZc5UW2PlQzsR11xTfm6PI42lHT2v12n2TRpHKsjZtJcFS9y1wK1IMtT7zAdpGDme1FtADJd9kj9jv+mtlOHIS8IKjoOd9e3wnEnSdH59KI3fiTKFkuvRWfPqaLJe6pQrbDaCeuj8zn2DdSUtdrrGi71W1bwULFrpb7a7JN8yg95/D65EFJvGYam4e9DjGN9yCq72EblcX2raYhVbL1YZahPNgylAdYxsYS13bTuG8Rd2+j2UlYh4VkDLEHN9HJCPB6lJwkTkyufVBrHAaeByYqb6EcEg2G/m6wWIIIYb6SqD3r+b8CPDl72+mS13ZEp4EduqQb+Ld4KOSWkncY8rdNi2NxaNO09/WQByTwv13kUV1kc4Fqu480F2xP6RHSj/GILdPe3yOKiiM1tmC5q9pYRRNlcjX6lTwopTTXNPzWIfg2dJmeMKgcrceDQtyvGp0yBX9Ik8qRVyDTCjEvUsuiWtHMclAVflCUs4BXgLZL1DRZt7SSuMyFZnZ5lLum2O7b6nJfrphT20fTwIP3MXnL+6VarMSzexM6mzGH0fRIlChAx2ZUlwcXQYxHAOtAulQFAQeL+CnwkEX8uLpaX/xb2F84m2X1XCvgVbkCi7fdSdEHLIM7gMMzY7oOOsv3wb+WDpseEP+dh9KG5exu7oohuUwlTtBxa1LI3HWSC/Mi6JVYN2bMg5sTMC+qT+p+gaiKgWASLSmtb+FurHGWFDIPtMSRkpNf8lAyQgxEJrL6+XWcvJyHvNQc9XrDmmtzgpa8C8ETZ2u38lNv2WloG6IjnkDj8oTOvnqwoLaceVzjKb4LKgw1QqEwirDP+7Cj3dt7RapqECNHVpy3taM90+aQudEcIPazdCjJz/avVRIVB8sh1u/nEs5ly31YlPX0QPFu0daov7fQJvSLM7eh0Kta/NfddUw1QD+gotkdoe+P8ElDdG2B5L4hWlIMeU+IBryCYhoyPu4hy+ojhGjp2YXo6nGR7SFaUwzBMDaM9oEhWvqThGiJyNLjhGhN00H0W7Zy/7IhWvoOIVoWJVkTJOUHhOiisF564PL7SuuzIM4q+gEAlhE566xwNEzG4rXGypQrjRUHygZUwCYum81oSNOjW1h3FiP4cxr7O6ArACNv7ZDZ09IbmhsPBG3noByyDsdPIS95w2xYiiZXg1O+spsGp/raL0RstX7griEuQYOqyzWgSsQsAmbD0bVyTR7MgIb3EUnIFna4Iq/5AKLoeWQQBVM1SOf0utcsoHRAG/TN1V0HwjP9OeAp/H3JvP9ZW/NoMHJJVFVNUFXJkixRNEpj39dhjjBiuxU2xB/IBc/KO1TjzBmmjjIfUVbz0U8bWSHmhrGRBTbgy+dJcCuCfVmD21lxndsMCqL0wZSHOLAuHurA2uH+u0kfQT/d4cF5pbLTg2VMWvdwX0sQN3ZZGrxXXIsF3+K7P956dipE0m9sj1QeNM5Uc8axkBZUxUWlIYhkjGU56c1mzRrjY9Oh7XNOwLrCkLS8tq+Vj9KazDNY/mzRerpFN90U/1qyo/jSBqinJzQscyLIKMTFnaqpQgQNHKhVR9lWY99fJnGb5B/bJ/aq3ccnaG5t79XHo1738uLyvP9rb0jOO7+Qyw45HXa64/7lBYQ/kVx1x+Skd9q5How/Hh2T15ByPxe4yBg4IQO2YHFELkAFhOFkpNUid2AVxIfcO6UEJmL4XglXKL33MCJH3bPeyfWgR04674n0bAgRnw0lz0cm8rOhRHk2lKjPhZJnoxztuRCiPxdCjOdCiPlcCLGekpD31A7vlQ1/AFGFVIbw36g3Jk8a2bYR8aRBbRsRTxpHthHxpDFkGxFPGj+2EfGksSNvpYCQzuBd5/2IXJ6ekpP+qDvsjXs/mJILApFk3L+4vrwefVdSunPqfL6OqNutPv7b5q0Mxd15IpkkWwXwViTxE4AltWeFYbJ0PoGQ0yAk9MvSwy6EuDS2mReRwCfUduZNg48JXMJVZpTACbNv/CCKmRMdn7Bo6dmr3pc4tN9lXcn/lWS/oTGP80AVNlRvoLsHoq9osARpdIPFFOjl5wuCGcE99gGLYmL7Lrmc4utLUiFlb/EANgk2fCQOAoIv8wI+KmBomFedbo+cXl+kofukf9G/eEM6w14HWsDXnSEZXF5fvOm9HPT6o+thLwe46l1eDcByAF9Ow0t+WKBA28ogR+9HuFMzGOJOTfeM79QMuufj1ujyenxGfr3gSPoxXRCP+jfx/NUHSVQ/kX+Rc/sLWyQLMigui58E8j5IyMJeER9XAOOARPMgjKlPoLfkrEaAbZRew6VcvFwVzHRFPmifiDO3Q9sBKUepGdl8xwLUyH5L8FHwiMxA3fGcRQV/gDcV5dyO00Fgd1zr/0B64AOSBB/BZkK6BApg/p8OkwX5VnXsM6MBf23DszGjQf/N2Xj0txk9EzMq1LHPjPL1mOL087OxqN6g1yW9f1/3rx7NqsxHtSrrv86qaiqpWdbJL7jtBvaEv9rZpmf75Jd2uunJV36Bxu5lfwBFwuUAseGWKPyGUmp01eud8FMrP78eX788GxZbolhGMJ/XBIQIgnBlhzEZBLZLTlGwaKPdIAypl9prNwlvU+MgrwA/ztTCRw5kUZJaw95pC69cDU5PrwZDMrch60MBAkYe4rYblh4JFfg8KaJFZhqLJOK1yT9f8TVO4uR3CegIUb3CtzNYBNQI9yWNoxjRmG9BOjVUYEq4CIvOFMGFjG7cqGZ+AlZVShWKGzLKXn5KhnwvMcIZHNtzcByYABrPDoEDWQcLnExBIliKAWdo1J2zYZ/EFPgvDpkSN0FvzxjLJDjFt0+A7MiQ3jJ6x8duUJ+TnhdkCNTzbxhYdIiiGtJsZ6J0C9xKJbh4LJCOFwVbSzHSVItxNLMkxNVqcpNAXQm4n1TEuM3/lxZxhuccX/7WLlz5Z7rKQ/ibzqh92un2B/3x+49HEH5QMjPO6gFYoAMaD/vdcaaH74jxrNcZH46R/3/KPHrpe6vvxPej44R8Amkpys3+Y3Wzpn1qO8yDPwDvP8ZsQUcxXf50TGwvpLa7wvbpYw015tt3mL7SJIXWPA3iOcn3dAQaBTwMFhcWcbjRfaLJnkNwnAN1Y3sKlh2CCSNCyDXFIQKekDmzqUgK066EWAzJh7RxWdK/Iwt8zqnSJTLw0VvmJrYHs6UEVMN2FxzwJKBymhF3JkTyoIQIau2wsIU7i2mf6lI/AudjvkehnQ1XLRDTlFS2fCF1ecCISLpCcVaqEe4VacmSoEP+QmkRfEovTIMF82cB3B5eX0CHMuxfQmQ7JqL0UtSIaLZFGYjC30o2cEnzk/MxwaltKCmxtqxMFvHyCi2OwczRkjoMJAp3QXkLDCJp8Hsk0TbF5b9F+7iiPU0gGuATKJjQUKA22yKsfxIZ5DlGD0ZvcyATRzyTLQMICVMehzAj8sw1C8GNX85CSn+nXAmIui56UZAt1BAX4V7Ryy9FnYhiJnqxEP0VnxzCDUS8CNMrhhlUwR52IlyhaqfsgLA40fgj/cT1NLdvsYdCRKmdbcMjkH5xv86fhA+TaimHhMgbeHEEnqMgvF+DgQSfK00lmB5PzI/OCISvtaVLZVGKT/kJayLegkDFvMQKHEba5OwX7GcYzxcFHmTubs5wIS1Czsmc3cxJBH7ERUdns/SJE2x+1iZ72hj646xREgz5/taovxRNUHBbFvEkh9JWxGdvjSq+LfG/xxqxSwC5BUno4B9Z/exijz9gM9pdOR7tgtbb1xG9gmqJ9iKownmQfgXmeS2MoLB++4aAjZ6f94bdfmfQwk4ay8u0UMNO1A9I+kUlBF8/n1kH6cfIrcc+UyiA+JIAGt5dGAB3BU2ZPNBGK5RC8ZJ4Lgg/BvZxFH8Bcyo5aAyuY2647THUMLPZI7OLxXR/MOiMewSc9a/A8bA36p9cdwZ/FX4vOuPrIbALLchfgd3uZefZqfUKj4YTPPaJz/fyAJhWpx4ePqwFaQ934Y4JH4EnOKF3PO/0L8ioN3zb7/bIO/BUXAS8vPp49KC0/LC1PshwA6C3LLwb8zENQ0h15ZKZ8LDKYR+JW+vYPwGJG8VNlbiyiLHXS5hq9bLBRF7NrGd8/K4ixjtpqEHwy4zaT2syP5pZzmt2hPdoZse2V57tzS9H9JaGtHL9Rf6ytzCZriYbR1rT59oF/j/umws3NBZcOrMTL8431EdwCS+n34sVzNKN5WK7HYIL0A2sYmFYfXdII+70LfAfxE84zsdCFkbx5+LbH/jgT+knvovf/rDrhSOf8nnwQTshfWEA7m4I+Dl7MGfEr57ytwjUKf2Wl9A0zphZ2/eesTik7AQuxbcnhbXvmzr8e4Hosvoeh/t8uVsQ7Ryh6lCIm5olKno+R/GOdqiS2fqX0pgyjBAlSxMVRSu+Z6QYstgcImmKpGi6ZWiqruha+l0NL77+P4B7H6I="
          },
          {
            "name": "geo_city",
            "value": "Yellowknife AP"
          },
          {
            "name": "geo_province",
            "value": "NT"
          },
          {
            "name": "geo_country",
            "value": "CAN"
          },
          {
            "name": "geo_latitude_deg",
            "value": "62.463"
          },
          {
            "name": "geo_longitude_deg",
            "value": "-114.44"
          },
          {
            "name": "geo_heating_degree_days_dd",
            "value": "8170.0"
          },
          {
            "name": "geo_cooling_degree_days_dd",
            "value": "53.0"
          },
          {
            "name": "geo_necb_climate_zone",
            "value": "8"
          },
          {
            "name": "qaqc_unmet_hours_heating_hours",
            "value": "0.0"
          },
          {
            "name": "qaqc_unmet_hours_cooling_hours",
            "value": "49.17"
          },
          {
            "name": "envelope_conditioned_floor_area_m_2",
            "value": "232.34295184"
          },
          {
            "name": "envelope_exterior_surface_area_m_2",
            "value": "444.74568373287457"
          },
          {
            "name": "envelope_building_volume_m_3",
            "value": "961.3388783481576"
          },
          {
            "name": "envelope_outdoor_walls_average_conductance_w_per_m_2_k",
            "value": "0.165"
          },
          {
            "name": "envelope_outdoor_roofs_average_conductance_w_per_m_2_k",
            "value": "0.11"
          },
          {
            "name": "envelope_outdoor_floors_average_conductance_w_per_m_2_k",
            "value": ""
          },
          {
            "name": "envelope_ground_walls_average_conductance_w_per_m_2_k",
            "value": ""
          },
          {
            "name": "envelope_ground_roofs_average_conductance_w_per_m_2_k",
            "value": ""
          },
          {
            "name": "envelope_ground_floors_average_conductance_w_per_m_2_k",
            "value": "0.379"
          },
          {
            "name": "envelope_outdoor_windows_average_conductance_w_per_m_2_k",
            "value": "1.3"
          },
          {
            "name": "envelope_outdoor_doors_average_conductance_w_per_m_2_k",
            "value": ""
          },
          {
            "name": "envelope_outdoor_overhead_doors_average_conductance_w_per_m_2_k",
            "value": ""
          },
          {
            "name": "envelope_skylights_average_conductance_w_per_m_2_k",
            "value": ""
          },
          {
            "name": "envelope_fdwr_ratio",
            "value": "20.0"
          },
          {
            "name": "envelope_srr_ratio",
            "value": "0.0"
          },
          {
            "name": "peak_electricy_power_watts",
            "value": "54177.76"
          },
          {
            "name": "peak_natural_gas_watts",
            "value": "NA"
          }
        ],
        "step_warnings": []
      }
    }
  ],
  "updated_at": "20190221T165143Z",
  "weather_file": "dummy.epw"
}