! Program Version,EnergyPlus, Version 8.9.0-eba93e8e1b, YMD=2018.09.14 14:09,
! Output:Meter Objects (applicable to this run)
Output:Meter,Electricity:Facility,hourly; !- [J]
Output:Meter:Cumulative,Electricity:Facility,hourly; !- [J]
Output:Meter,Electricity:Building,hourly; !- [J]
Output:Meter:Cumulative,Electricity:Building,hourly; !- [J]
Output:Meter,Electricity:Zone:BASEMENT ZN,hourly; !- [J]
Output:Meter:Cumulative,Electricity:Zone:BASEMENT ZN,hourly; !- [J]
Output:Meter,InteriorLights:Electricity,hourly; !- [J]
Output:Meter:Cumulative,InteriorLights:Electricity,hourly; !- [J]
Output:Meter,InteriorLights:Electricity:Zone:BASEMENT ZN,hourly; !- [J]
Output:Meter:Cumulative,InteriorLights:Electricity:Zone:BASEMENT ZN,hourly; !- [J]
Output:Meter,General:InteriorLights:Electricity,hourly; !- [J]
Output:Meter:Cumulative,General:InteriorLights:Electricity,hourly; !- [J]
Output:Meter,Electricity:Zone:CORE_BOTTOM ZN,hourly; !- [J]
Output:Meter:Cumulative,Electricity:Zone:CORE_BOTTOM ZN,hourly; !- [J]
Output:Meter,InteriorLights:Electricity:Zone:CORE_BOTTOM ZN,hourly; !- [J]
Output:Meter:Cumulative,InteriorLights:Electricity:Zone:CORE_BOTTOM ZN,hourly; !- [J]
Output:Meter,Electricity:Zone:CORE_MID ZN,hourly; !- [J]
Output:Meter:Cumulative,Electricity:Zone:CORE_MID ZN,hourly; !- [J]
Output:Meter,InteriorLights:Electricity:Zone:CORE_MID ZN,hourly; !- [J]
Output:Meter:Cumulative,InteriorLights:Electricity:Zone:CORE_MID ZN,hourly; !- [J]
Output:Meter,Electricity:Zone:CORE_TOP ZN,hourly; !- [J]
Output:Meter:Cumulative,Electricity:Zone:CORE_TOP ZN,hourly; !- [J]
Output:Meter,InteriorLights:Electricity:Zone:CORE_TOP ZN,hourly; !- [J]
Output:Meter:Cumulative,InteriorLights:Electricity:Zone:CORE_TOP ZN,hourly; !- [J]
Output:Meter,Electricity:Zone:DATACENTER_BASEMENT_ZN_6 ZN,hourly; !- [J]
Output:Meter:Cumulative,Electricity:Zone:DATACENTER_BASEMENT_ZN_6 ZN,hourly; !- [J]
Output:Meter,InteriorLights:Electricity:Zone:DATACENTER_BASEMENT_ZN_6 ZN,hourly; !- [J]
Output:Meter:Cumulative,InteriorLights:Electricity:Zone:DATACENTER_BASEMENT_ZN_6 ZN,hourly; !- [J]
Output:Meter,Electricity:Zone:DATACENTER_BOT_ZN_6 ZN,hourly; !- [J]
Output:Meter:Cumulative,Electricity:Zone:DATACENTER_BOT_ZN_6 ZN,hourly; !- [J]
Output:Meter,InteriorLights:Electricity:Zone:DATACENTER_BOT_ZN_6 ZN,hourly; !- [J]
Output:Meter:Cumulative,InteriorLights:Electricity:Zone:DATACENTER_BOT_ZN_6 ZN,hourly; !- [J]
Output:Meter,Electricity:Zone:DATACENTER_MID_ZN_6 ZN,hourly; !- [J]
Output:Meter:Cumulative,Electricity:Zone:DATACENTER_MID_ZN_6 ZN,hourly; !- [J]
Output:Meter,InteriorLights:Electricity:Zone:DATACENTER_MID_ZN_6 ZN,hourly; !- [J]
Output:Meter:Cumulative,InteriorLights:Electricity:Zone:DATACENTER_MID_ZN_6 ZN,hourly; !- [J]
Output:Meter,Electricity:Zone:DATACENTER_TOP_ZN_6 ZN,hourly; !- [J]
Output:Meter:Cumulative,Electricity:Zone:DATACENTER_TOP_ZN_6 ZN,hourly; !- [J]
Output:Meter,InteriorLights:Electricity:Zone:DATACENTER_TOP_ZN_6 ZN,hourly; !- [J]
Output:Meter:Cumulative,InteriorLights:Electricity:Zone:DATACENTER_TOP_ZN_6 ZN,hourly; !- [J]
Output:Meter,Electricity:Zone:PERIMETER_BOT_ZN_1 ZN,hourly; !- [J]
Output:Meter:Cumulative,Electricity:Zone:PERIMETER_BOT_ZN_1 ZN,hourly; !- [J]
Output:Meter,InteriorLights:Electricity:Zone:PERIMETER_BOT_ZN_1 ZN,hourly; !- [J]
Output:Meter:Cumulative,InteriorLights:Electricity:Zone:PERIMETER_BOT_ZN_1 ZN,hourly; !- [J]
Output:Meter,Electricity:Zone:PERIMETER_BOT_ZN_2 ZN,hourly; !- [J]
Output:Meter:Cumulative,Electricity:Zone:PERIMETER_BOT_ZN_2 ZN,hourly; !- [J]
Output:Meter,InteriorLights:Electricity:Zone:PERIMETER_BOT_ZN_2 ZN,hourly; !- [J]
Output:Meter:Cumulative,InteriorLights:Electricity:Zone:PERIMETER_BOT_ZN_2 ZN,hourly; !- [J]
Output:Meter,Electricity:Zone:PERIMETER_BOT_ZN_3 ZN,hourly; !- [J]
Output:Meter:Cumulative,Electricity:Zone:PERIMETER_BOT_ZN_3 ZN,hourly; !- [J]
Output:Meter,InteriorLights:Electricity:Zone:PERIMETER_BOT_ZN_3 ZN,hourly; !- [J]
Output:Meter:Cumulative,InteriorLights:Electricity:Zone:PERIMETER_BOT_ZN_3 ZN,hourly; !- [J]
Output:Meter,Electricity:Zone:PERIMETER_BOT_ZN_4 ZN,hourly; !- [J]
Output:Meter:Cumulative,Electricity:Zone:PERIMETER_BOT_ZN_4 ZN,hourly; !- [J]
Output:Meter,InteriorLights:Electricity:Zone:PERIMETER_BOT_ZN_4 ZN,hourly; !- [J]
Output:Meter:Cumulative,InteriorLights:Electricity:Zone:PERIMETER_BOT_ZN_4 ZN,hourly; !- [J]
Output:Meter,Electricity:Zone:PERIMETER_MID_ZN_1 ZN,hourly; !- [J]
Output:Meter:Cumulative,Electricity:Zone:PERIMETER_MID_ZN_1 ZN,hourly; !- [J]
Output:Meter,InteriorLights:Electricity:Zone:PERIMETER_MID_ZN_1 ZN,hourly; !- [J]
Output:Meter:Cumulative,InteriorLights:Electricity:Zone:PERIMETER_MID_ZN_1 ZN,hourly; !- [J]
Output:Meter,Electricity:Zone:PERIMETER_MID_ZN_2 ZN,hourly; !- [J]
Output:Meter:Cumulative,Electricity:Zone:PERIMETER_MID_ZN_2 ZN,hourly; !- [J]
Output:Meter,InteriorLights:Electricity:Zone:PERIMETER_MID_ZN_2 ZN,hourly; !- [J]
Output:Meter:Cumulative,InteriorLights:Electricity:Zone:PERIMETER_MID_ZN_2 ZN,hourly; !- [J]
Output:Meter,Electricity:Zone:PERIMETER_MID_ZN_3 ZN,hourly; !- [J]
Output:Meter:Cumulative,Electricity:Zone:PERIMETER_MID_ZN_3 ZN,hourly; !- [J]
Output:Meter,InteriorLights:Electricity:Zone:PERIMETER_MID_ZN_3 ZN,hourly; !- [J]
Output:Meter:Cumulative,InteriorLights:Electricity:Zone:PERIMETER_MID_ZN_3 ZN,hourly; !- [J]
Output:Meter,Electricity:Zone:PERIMETER_MID_ZN_4 ZN,hourly; !- [J]
Output:Meter:Cumulative,Electricity:Zone:PERIMETER_MID_ZN_4 ZN,hourly; !- [J]
Output:Meter,InteriorLights:Electricity:Zone:PERIMETER_MID_ZN_4 ZN,hourly; !- [J]
Output:Meter:Cumulative,InteriorLights:Electricity:Zone:PERIMETER_MID_ZN_4 ZN,hourly; !- [J]
Output:Meter,Electricity:Zone:PERIMETER_TOP_ZN_1 ZN,hourly; !- [J]
Output:Meter:Cumulative,Electricity:Zone:PERIMETER_TOP_ZN_1 ZN,hourly; !- [J]
Output:Meter,InteriorLights:Electricity:Zone:PERIMETER_TOP_ZN_1 ZN,hourly; !- [J]
Output:Meter:Cumulative,InteriorLights:Electricity:Zone:PERIMETER_TOP_ZN_1 ZN,hourly; !- [J]
Output:Meter,Electricity:Zone:PERIMETER_TOP_ZN_2 ZN,hourly; !- [J]
Output:Meter:Cumulative,Electricity:Zone:PERIMETER_TOP_ZN_2 ZN,hourly; !- [J]
Output:Meter,InteriorLights:Electricity:Zone:PERIMETER_TOP_ZN_2 ZN,hourly; !- [J]
Output:Meter:Cumulative,InteriorLights:Electricity:Zone:PERIMETER_TOP_ZN_2 ZN,hourly; !- [J]
Output:Meter,Electricity:Zone:PERIMETER_TOP_ZN_3 ZN,hourly; !- [J]
Output:Meter:Cumulative,Electricity:Zone:PERIMETER_TOP_ZN_3 ZN,hourly; !- [J]
Output:Meter,InteriorLights:Electricity:Zone:PERIMETER_TOP_ZN_3 ZN,hourly; !- [J]
Output:Meter:Cumulative,InteriorLights:Electricity:Zone:PERIMETER_TOP_ZN_3 ZN,hourly; !- [J]
Output:Meter,Electricity:Zone:PERIMETER_TOP_ZN_4 ZN,hourly; !- [J]
Output:Meter:Cumulative,Electricity:Zone:PERIMETER_TOP_ZN_4 ZN,hourly; !- [J]
Output:Meter,InteriorLights:Electricity:Zone:PERIMETER_TOP_ZN_4 ZN,hourly; !- [J]
Output:Meter:Cumulative,InteriorLights:Electricity:Zone:PERIMETER_TOP_ZN_4 ZN,hourly; !- [J]
Output:Meter,InteriorEquipment:Electricity,hourly; !- [J]
Output:Meter:Cumulative,InteriorEquipment:Electricity,hourly; !- [J]
Output:Meter,InteriorEquipment:Electricity:Zone:BASEMENT ZN,hourly; !- [J]
Output:Meter:Cumulative,InteriorEquipment:Electricity:Zone:BASEMENT ZN,hourly; !- [J]
Output:Meter,General:InteriorEquipment:Electricity,hourly; !- [J]
Output:Meter:Cumulative,General:InteriorEquipment:Electricity,hourly; !- [J]
Output:Meter,InteriorEquipment:Electricity:Zone:CORE_BOTTOM ZN,hourly; !- [J]
Output:Meter:Cumulative,InteriorEquipment:Electricity:Zone:CORE_BOTTOM ZN,hourly; !- [J]
Output:Meter,InteriorEquipment:Electricity:Zone:CORE_MID ZN,hourly; !- [J]
Output:Meter:Cumulative,InteriorEquipment:Electricity:Zone:CORE_MID ZN,hourly; !- [J]
Output:Meter,InteriorEquipment:Electricity:Zone:CORE_TOP ZN,hourly; !- [J]
Output:Meter:Cumulative,InteriorEquipment:Electricity:Zone:CORE_TOP ZN,hourly; !- [J]
Output:Meter,InteriorEquipment:Electricity:Zone:DATACENTER_BASEMENT_ZN_6 ZN,hourly; !- [J]
Output:Meter:Cumulative,InteriorEquipment:Electricity:Zone:DATACENTER_BASEMENT_ZN_6 ZN,hourly; !- [J]
Output:Meter,InteriorEquipment:Electricity:Zone:DATACENTER_BOT_ZN_6 ZN,hourly; !- [J]
Output:Meter:Cumulative,InteriorEquipment:Electricity:Zone:DATACENTER_BOT_ZN_6 ZN,hourly; !- [J]
Output:Meter,InteriorEquipment:Electricity:Zone:DATACENTER_MID_ZN_6 ZN,hourly; !- [J]
Output:Meter:Cumulative,InteriorEquipment:Electricity:Zone:DATACENTER_MID_ZN_6 ZN,hourly; !- [J]
Output:Meter,InteriorEquipment:Electricity:Zone:DATACENTER_TOP_ZN_6 ZN,hourly; !- [J]
Output:Meter:Cumulative,InteriorEquipment:Electricity:Zone:DATACENTER_TOP_ZN_6 ZN,hourly; !- [J]
Output:Meter,InteriorEquipment:Electricity:Zone:PERIMETER_BOT_ZN_1 ZN,hourly; !- [J]
Output:Meter:Cumulative,InteriorEquipment:Electricity:Zone:PERIMETER_BOT_ZN_1 ZN,hourly; !- [J]
Output:Meter,InteriorEquipment:Electricity:Zone:PERIMETER_BOT_ZN_2 ZN,hourly; !- [J]
Output:Meter:Cumulative,InteriorEquipment:Electricity:Zone:PERIMETER_BOT_ZN_2 ZN,hourly; !- [J]
Output:Meter,InteriorEquipment:Electricity:Zone:PERIMETER_BOT_ZN_3 ZN,hourly; !- [J]
Output:Meter:Cumulative,InteriorEquipment:Electricity:Zone:PERIMETER_BOT_ZN_3 ZN,hourly; !- [J]
Output:Meter,InteriorEquipment:Electricity:Zone:PERIMETER_BOT_ZN_4 ZN,hourly; !- [J]
Output:Meter:Cumulative,InteriorEquipment:Electricity:Zone:PERIMETER_BOT_ZN_4 ZN,hourly; !- [J]
Output:Meter,InteriorEquipment:Electricity:Zone:PERIMETER_MID_ZN_1 ZN,hourly; !- [J]
Output:Meter:Cumulative,InteriorEquipment:Electricity:Zone:PERIMETER_MID_ZN_1 ZN,hourly; !- [J]
Output:Meter,InteriorEquipment:Electricity:Zone:PERIMETER_MID_ZN_2 ZN,hourly; !- [J]
Output:Meter:Cumulative,InteriorEquipment:Electricity:Zone:PERIMETER_MID_ZN_2 ZN,hourly; !- [J]
Output:Meter,InteriorEquipment:Electricity:Zone:PERIMETER_MID_ZN_3 ZN,hourly; !- [J]
Output:Meter:Cumulative,InteriorEquipment:Electricity:Zone:PERIMETER_MID_ZN_3 ZN,hourly; !- [J]
Output:Meter,InteriorEquipment:Electricity:Zone:PERIMETER_MID_ZN_4 ZN,hourly; !- [J]
Output:Meter:Cumulative,InteriorEquipment:Electricity:Zone:PERIMETER_MID_ZN_4 ZN,hourly; !- [J]
Output:Meter,InteriorEquipment:Electricity:Zone:PERIMETER_TOP_ZN_1 ZN,hourly; !- [J]
Output:Meter:Cumulative,InteriorEquipment:Electricity:Zone:PERIMETER_TOP_ZN_1 ZN,hourly; !- [J]
Output:Meter,InteriorEquipment:Electricity:Zone:PERIMETER_TOP_ZN_2 ZN,hourly; !- [J]
Output:Meter:Cumulative,InteriorEquipment:Electricity:Zone:PERIMETER_TOP_ZN_2 ZN,hourly; !- [J]
Output:Meter,InteriorEquipment:Electricity:Zone:PERIMETER_TOP_ZN_3 ZN,hourly; !- [J]
Output:Meter:Cumulative,InteriorEquipment:Electricity:Zone:PERIMETER_TOP_ZN_3 ZN,hourly; !- [J]
Output:Meter,InteriorEquipment:Electricity:Zone:PERIMETER_TOP_ZN_4 ZN,hourly; !- [J]
Output:Meter:Cumulative,InteriorEquipment:Electricity:Zone:PERIMETER_TOP_ZN_4 ZN,hourly; !- [J]
Output:Meter,EnergyTransfer:Facility,hourly; !- [J]
Output:Meter:Cumulative,EnergyTransfer:Facility,hourly; !- [J]
Output:Meter,EnergyTransfer:Building,hourly; !- [J]
Output:Meter:Cumulative,EnergyTransfer:Building,hourly; !- [J]
Output:Meter,EnergyTransfer:Zone:BASEMENT ZN,hourly; !- [J]
Output:Meter:Cumulative,EnergyTransfer:Zone:BASEMENT ZN,hourly; !- [J]
Output:Meter,Heating:EnergyTransfer,hourly; !- [J]
Output:Meter:Cumulative,Heating:EnergyTransfer,hourly; !- [J]
Output:Meter,Heating:EnergyTransfer:Zone:BASEMENT ZN,hourly; !- [J]
Output:Meter:Cumulative,Heating:EnergyTransfer:Zone:BASEMENT ZN,hourly; !- [J]
Output:Meter,Cooling:EnergyTransfer,hourly; !- [J]
Output:Meter:Cumulative,Cooling:EnergyTransfer,hourly; !- [J]
Output:Meter,Cooling:EnergyTransfer:Zone:BASEMENT ZN,hourly; !- [J]
Output:Meter:Cumulative,Cooling:EnergyTransfer:Zone:BASEMENT ZN,hourly; !- [J]
Output:Meter,EnergyTransfer:Zone:CORE_BOTTOM ZN,hourly; !- [J]
Output:Meter:Cumulative,EnergyTransfer:Zone:CORE_BOTTOM ZN,hourly; !- [J]
Output:Meter,Heating:EnergyTransfer:Zone:CORE_BOTTOM ZN,hourly; !- [J]
Output:Meter:Cumulative,Heating:EnergyTransfer:Zone:CORE_BOTTOM ZN,hourly; !- [J]
Output:Meter,Cooling:EnergyTransfer:Zone:CORE_BOTTOM ZN,hourly; !- [J]
Output:Meter:Cumulative,Cooling:EnergyTransfer:Zone:CORE_BOTTOM ZN,hourly; !- [J]
Output:Meter,EnergyTransfer:Zone:CORE_MID ZN,hourly; !- [J]
Output:Meter:Cumulative,EnergyTransfer:Zone:CORE_MID ZN,hourly; !- [J]
Output:Meter,Heating:EnergyTransfer:Zone:CORE_MID ZN,hourly; !- [J]
Output:Meter:Cumulative,Heating:EnergyTransfer:Zone:CORE_MID ZN,hourly; !- [J]
Output:Meter,Cooling:EnergyTransfer:Zone:CORE_MID ZN,hourly; !- [J]
Output:Meter:Cumulative,Cooling:EnergyTransfer:Zone:CORE_MID ZN,hourly; !- [J]
Output:Meter,EnergyTransfer:Zone:CORE_TOP ZN,hourly; !- [J]
Output:Meter:Cumulative,EnergyTransfer:Zone:CORE_TOP ZN,hourly; !- [J]
Output:Meter,Heating:EnergyTransfer:Zone:CORE_TOP ZN,hourly; !- [J]
Output:Meter:Cumulative,Heating:EnergyTransfer:Zone:CORE_TOP ZN,hourly; !- [J]
Output:Meter,Cooling:EnergyTransfer:Zone:CORE_TOP ZN,hourly; !- [J]
Output:Meter:Cumulative,Cooling:EnergyTransfer:Zone:CORE_TOP ZN,hourly; !- [J]
Output:Meter,EnergyTransfer:Zone:DATACENTER_BASEMENT_ZN_6 ZN,hourly; !- [J]
Output:Meter:Cumulative,EnergyTransfer:Zone:DATACENTER_BASEMENT_ZN_6 ZN,hourly; !- [J]
Output:Meter,Heating:EnergyTransfer:Zone:DATACENTER_BASEMENT_ZN_6 ZN,hourly; !- [J]
Output:Meter:Cumulative,Heating:EnergyTransfer:Zone:DATACENTER_BASEMENT_ZN_6 ZN,hourly; !- [J]
Output:Meter,Cooling:EnergyTransfer:Zone:DATACENTER_BASEMENT_ZN_6 ZN,hourly; !- [J]
Output:Meter:Cumulative,Cooling:EnergyTransfer:Zone:DATACENTER_BASEMENT_ZN_6 ZN,hourly; !- [J]
Output:Meter,EnergyTransfer:Zone:DATACENTER_BOT_ZN_6 ZN,hourly; !- [J]
Output:Meter:Cumulative,EnergyTransfer:Zone:DATACENTER_BOT_ZN_6 ZN,hourly; !- [J]
Output:Meter,Heating:EnergyTransfer:Zone:DATACENTER_BOT_ZN_6 ZN,hourly; !- [J]
Output:Meter:Cumulative,Heating:EnergyTransfer:Zone:DATACENTER_BOT_ZN_6 ZN,hourly; !- [J]
Output:Meter,Cooling:EnergyTransfer:Zone:DATACENTER_BOT_ZN_6 ZN,hourly; !- [J]
Output:Meter:Cumulative,Cooling:EnergyTransfer:Zone:DATACENTER_BOT_ZN_6 ZN,hourly; !- [J]
Output:Meter,EnergyTransfer:Zone:DATACENTER_MID_ZN_6 ZN,hourly; !- [J]
Output:Meter:Cumulative,EnergyTransfer:Zone:DATACENTER_MID_ZN_6 ZN,hourly; !- [J]
Output:Meter,Heating:EnergyTransfer:Zone:DATACENTER_MID_ZN_6 ZN,hourly; !- [J]
Output:Meter:Cumulative,Heating:EnergyTransfer:Zone:DATACENTER_MID_ZN_6 ZN,hourly; !- [J]
Output:Meter,Cooling:EnergyTransfer:Zone:DATACENTER_MID_ZN_6 ZN,hourly; !- [J]
Output:Meter:Cumulative,Cooling:EnergyTransfer:Zone:DATACENTER_MID_ZN_6 ZN,hourly; !- [J]
Output:Meter,EnergyTransfer:Zone:DATACENTER_TOP_ZN_6 ZN,hourly; !- [J]
Output:Meter:Cumulative,EnergyTransfer:Zone:DATACENTER_TOP_ZN_6 ZN,hourly; !- [J]
Output:Meter,Heating:EnergyTransfer:Zone:DATACENTER_TOP_ZN_6 ZN,hourly; !- [J]
Output:Meter:Cumulative,Heating:EnergyTransfer:Zone:DATACENTER_TOP_ZN_6 ZN,hourly; !- [J]
Output:Meter,Cooling:EnergyTransfer:Zone:DATACENTER_TOP_ZN_6 ZN,hourly; !- [J]
Output:Meter:Cumulative,Cooling:EnergyTransfer:Zone:DATACENTER_TOP_ZN_6 ZN,hourly; !- [J]
Output:Meter,EnergyTransfer:Zone:GROUNDFLOOR_PLENUM ZN,hourly; !- [J]
Output:Meter:Cumulative,EnergyTransfer:Zone:GROUNDFLOOR_PLENUM ZN,hourly; !- [J]
Output:Meter,Heating:EnergyTransfer:Zone:GROUNDFLOOR_PLENUM ZN,hourly; !- [J]
Output:Meter:Cumulative,Heating:EnergyTransfer:Zone:GROUNDFLOOR_PLENUM ZN,hourly; !- [J]
Output:Meter,Cooling:EnergyTransfer:Zone:GROUNDFLOOR_PLENUM ZN,hourly; !- [J]
Output:Meter:Cumulative,Cooling:EnergyTransfer:Zone:GROUNDFLOOR_PLENUM ZN,hourly; !- [J]
Output:Meter,EnergyTransfer:Zone:MIDFLOOR_PLENUM ZN,hourly; !- [J]
Output:Meter:Cumulative,EnergyTransfer:Zone:MIDFLOOR_PLENUM ZN,hourly; !- [J]
Output:Meter,Heating:EnergyTransfer:Zone:MIDFLOOR_PLENUM ZN,hourly; !- [J]
Output:Meter:Cumulative,Heating:EnergyTransfer:Zone:MIDFLOOR_PLENUM ZN,hourly; !- [J]
Output:Meter,Cooling:EnergyTransfer:Zone:MIDFLOOR_PLENUM ZN,hourly; !- [J]
Output:Meter:Cumulative,Cooling:EnergyTransfer:Zone:MIDFLOOR_PLENUM ZN,hourly; !- [J]
Output:Meter,EnergyTransfer:Zone:PERIMETER_BOT_ZN_1 ZN,hourly; !- [J]
Output:Meter:Cumulative,EnergyTransfer:Zone:PERIMETER_BOT_ZN_1 ZN,hourly; !- [J]
Output:Meter,Heating:EnergyTransfer:Zone:PERIMETER_BOT_ZN_1 ZN,hourly; !- [J]
Output:Meter:Cumulative,Heating:EnergyTransfer:Zone:PERIMETER_BOT_ZN_1 ZN,hourly; !- [J]
Output:Meter,Cooling:EnergyTransfer:Zone:PERIMETER_BOT_ZN_1 ZN,hourly; !- [J]
Output:Meter:Cumulative,Cooling:EnergyTransfer:Zone:PERIMETER_BOT_ZN_1 ZN,hourly; !- [J]
Output:Meter,EnergyTransfer:Zone:PERIMETER_BOT_ZN_2 ZN,hourly; !- [J]
Output:Meter:Cumulative,EnergyTransfer:Zone:PERIMETER_BOT_ZN_2 ZN,hourly; !- [J]
Output:Meter,Heating:EnergyTransfer:Zone:PERIMETER_BOT_ZN_2 ZN,hourly; !- [J]
Output:Meter:Cumulative,Heating:EnergyTransfer:Zone:PERIMETER_BOT_ZN_2 ZN,hourly; !- [J]
Output:Meter,Cooling:EnergyTransfer:Zone:PERIMETER_BOT_ZN_2 ZN,hourly; !- [J]
Output:Meter:Cumulative,Cooling:EnergyTransfer:Zone:PERIMETER_BOT_ZN_2 ZN,hourly; !- [J]
Output:Meter,EnergyTransfer:Zone:PERIMETER_BOT_ZN_3 ZN,hourly; !- [J]
Output:Meter:Cumulative,EnergyTransfer:Zone:PERIMETER_BOT_ZN_3 ZN,hourly; !- [J]
Output:Meter,Heating:EnergyTransfer:Zone:PERIMETER_BOT_ZN_3 ZN,hourly; !- [J]
Output:Meter:Cumulative,Heating:EnergyTransfer:Zone:PERIMETER_BOT_ZN_3 ZN,hourly; !- [J]
Output:Meter,Cooling:EnergyTransfer:Zone:PERIMETER_BOT_ZN_3 ZN,hourly; !- [J]
Output:Meter:Cumulative,Cooling:EnergyTransfer:Zone:PERIMETER_BOT_ZN_3 ZN,hourly; !- [J]
Output:Meter,EnergyTransfer:Zone:PERIMETER_BOT_ZN_4 ZN,hourly; !- [J]
Output:Meter:Cumulative,EnergyTransfer:Zone:PERIMETER_BOT_ZN_4 ZN,hourly; !- [J]
Output:Meter,Heating:EnergyTransfer:Zone:PERIMETER_BOT_ZN_4 ZN,hourly; !- [J]
Output:Meter:Cumulative,Heating:EnergyTransfer:Zone:PERIMETER_BOT_ZN_4 ZN,hourly; !- [J]
Output:Meter,Cooling:EnergyTransfer:Zone:PERIMETER_BOT_ZN_4 ZN,hourly; !- [J]
Output:Meter:Cumulative,Cooling:EnergyTransfer:Zone:PERIMETER_BOT_ZN_4 ZN,hourly; !- [J]
Output:Meter,EnergyTransfer:Zone:PERIMETER_MID_ZN_1 ZN,hourly; !- [J]
Output:Meter:Cumulative,EnergyTransfer:Zone:PERIMETER_MID_ZN_1 ZN,hourly; !- [J]
Output:Meter,Heating:EnergyTransfer:Zone:PERIMETER_MID_ZN_1 ZN,hourly; !- [J]
Output:Meter:Cumulative,Heating:EnergyTransfer:Zone:PERIMETER_MID_ZN_1 ZN,hourly; !- [J]
Output:Meter,Cooling:EnergyTransfer:Zone:PERIMETER_MID_ZN_1 ZN,hourly; !- [J]
Output:Meter:Cumulative,Cooling:EnergyTransfer:Zone:PERIMETER_MID_ZN_1 ZN,hourly; !- [J]
Output:Meter,EnergyTransfer:Zone:PERIMETER_MID_ZN_2 ZN,hourly; !- [J]
Output:Meter:Cumulative,EnergyTransfer:Zone:PERIMETER_MID_ZN_2 ZN,hourly; !- [J]
Output:Meter,Heating:EnergyTransfer:Zone:PERIMETER_MID_ZN_2 ZN,hourly; !- [J]
Output:Meter:Cumulative,Heating:EnergyTransfer:Zone:PERIMETER_MID_ZN_2 ZN,hourly; !- [J]
Output:Meter,Cooling:EnergyTransfer:Zone:PERIMETER_MID_ZN_2 ZN,hourly; !- [J]
Output:Meter:Cumulative,Cooling:EnergyTransfer:Zone:PERIMETER_MID_ZN_2 ZN,hourly; !- [J]
Output:Meter,EnergyTransfer:Zone:PERIMETER_MID_ZN_3 ZN,hourly; !- [J]
Output:Meter:Cumulative,EnergyTransfer:Zone:PERIMETER_MID_ZN_3 ZN,hourly; !- [J]
Output:Meter,Heating:EnergyTransfer:Zone:PERIMETER_MID_ZN_3 ZN,hourly; !- [J]
Output:Meter:Cumulative,Heating:EnergyTransfer:Zone:PERIMETER_MID_ZN_3 ZN,hourly; !- [J]
Output:Meter,Cooling:EnergyTransfer:Zone:PERIMETER_MID_ZN_3 ZN,hourly; !- [J]
Output:Meter:Cumulative,Cooling:EnergyTransfer:Zone:PERIMETER_MID_ZN_3 ZN,hourly; !- [J]
Output:Meter,EnergyTransfer:Zone:PERIMETER_MID_ZN_4 ZN,hourly; !- [J]
Output:Meter:Cumulative,EnergyTransfer:Zone:PERIMETER_MID_ZN_4 ZN,hourly; !- [J]
Output:Meter,Heating:EnergyTransfer:Zone:PERIMETER_MID_ZN_4 ZN,hourly; !- [J]
Output:Meter:Cumulative,Heating:EnergyTransfer:Zone:PERIMETER_MID_ZN_4 ZN,hourly; !- [J]
Output:Meter,Cooling:EnergyTransfer:Zone:PERIMETER_MID_ZN_4 ZN,hourly; !- [J]
Output:Meter:Cumulative,Cooling:EnergyTransfer:Zone:PERIMETER_MID_ZN_4 ZN,hourly; !- [J]
Output:Meter,EnergyTransfer:Zone:PERIMETER_TOP_ZN_1 ZN,hourly; !- [J]
Output:Meter:Cumulative,EnergyTransfer:Zone:PERIMETER_TOP_ZN_1 ZN,hourly; !- [J]
Output:Meter,Heating:EnergyTransfer:Zone:PERIMETER_TOP_ZN_1 ZN,hourly; !- [J]
Output:Meter:Cumulative,Heating:EnergyTransfer:Zone:PERIMETER_TOP_ZN_1 ZN,hourly; !- [J]
Output:Meter,Cooling:EnergyTransfer:Zone:PERIMETER_TOP_ZN_1 ZN,hourly; !- [J]
Output:Meter:Cumulative,Cooling:EnergyTransfer:Zone:PERIMETER_TOP_ZN_1 ZN,hourly; !- [J]
Output:Meter,EnergyTransfer:Zone:PERIMETER_TOP_ZN_2 ZN,hourly; !- [J]
Output:Meter:Cumulative,EnergyTransfer:Zone:PERIMETER_TOP_ZN_2 ZN,hourly; !- [J]
Output:Meter,Heating:EnergyTransfer:Zone:PERIMETER_TOP_ZN_2 ZN,hourly; !- [J]
Output:Meter:Cumulative,Heating:EnergyTransfer:Zone:PERIMETER_TOP_ZN_2 ZN,hourly; !- [J]
Output:Meter,Cooling:EnergyTransfer:Zone:PERIMETER_TOP_ZN_2 ZN,hourly; !- [J]
Output:Meter:Cumulative,Cooling:EnergyTransfer:Zone:PERIMETER_TOP_ZN_2 ZN,hourly; !- [J]
Output:Meter,EnergyTransfer:Zone:PERIMETER_TOP_ZN_3 ZN,hourly; !- [J]
Output:Meter:Cumulative,EnergyTransfer:Zone:PERIMETER_TOP_ZN_3 ZN,hourly; !- [J]
Output:Meter,Heating:EnergyTransfer:Zone:PERIMETER_TOP_ZN_3 ZN,hourly; !- [J]
Output:Meter:Cumulative,Heating:EnergyTransfer:Zone:PERIMETER_TOP_ZN_3 ZN,hourly; !- [J]
Output:Meter,Cooling:EnergyTransfer:Zone:PERIMETER_TOP_ZN_3 ZN,hourly; !- [J]
Output:Meter:Cumulative,Cooling:EnergyTransfer:Zone:PERIMETER_TOP_ZN_3 ZN,hourly; !- [J]
Output:Meter,EnergyTransfer:Zone:PERIMETER_TOP_ZN_4 ZN,hourly; !- [J]
Output:Meter:Cumulative,EnergyTransfer:Zone:PERIMETER_TOP_ZN_4 ZN,hourly; !- [J]
Output:Meter,Heating:EnergyTransfer:Zone:PERIMETER_TOP_ZN_4 ZN,hourly; !- [J]
Output:Meter:Cumulative,Heating:EnergyTransfer:Zone:PERIMETER_TOP_ZN_4 ZN,hourly; !- [J]
Output:Meter,Cooling:EnergyTransfer:Zone:PERIMETER_TOP_ZN_4 ZN,hourly; !- [J]
Output:Meter:Cumulative,Cooling:EnergyTransfer:Zone:PERIMETER_TOP_ZN_4 ZN,hourly; !- [J]
Output:Meter,EnergyTransfer:Zone:TOPFLOOR_PLENUM ZN,hourly; !- [J]
Output:Meter:Cumulative,EnergyTransfer:Zone:TOPFLOOR_PLENUM ZN,hourly; !- [J]
Output:Meter,Heating:EnergyTransfer:Zone:TOPFLOOR_PLENUM ZN,hourly; !- [J]
Output:Meter:Cumulative,Heating:EnergyTransfer:Zone:TOPFLOOR_PLENUM ZN,hourly; !- [J]
Output:Meter,Cooling:EnergyTransfer:Zone:TOPFLOOR_PLENUM ZN,hourly; !- [J]
Output:Meter:Cumulative,Cooling:EnergyTransfer:Zone:TOPFLOOR_PLENUM ZN,hourly; !- [J]
Output:Meter,ElectricityPurchased:Facility,hourly; !- [J]
Output:Meter:Cumulative,ElectricityPurchased:Facility,hourly; !- [J]
Output:Meter,ElectricityPurchased:Plant,hourly; !- [J]
Output:Meter:Cumulative,ElectricityPurchased:Plant,hourly; !- [J]
Output:Meter,Cogeneration:ElectricityPurchased,hourly; !- [J]
Output:Meter:Cumulative,Cogeneration:ElectricityPurchased,hourly; !- [J]
Output:Meter,ElectricitySurplusSold:Facility,hourly; !- [J]
Output:Meter:Cumulative,ElectricitySurplusSold:Facility,hourly; !- [J]
Output:Meter,ElectricitySurplusSold:Plant,hourly; !- [J]
Output:Meter:Cumulative,ElectricitySurplusSold:Plant,hourly; !- [J]
Output:Meter,Cogeneration:ElectricitySurplusSold,hourly; !- [J]
Output:Meter:Cumulative,Cogeneration:ElectricitySurplusSold,hourly; !- [J]
Output:Meter,ElectricityNet:Facility,hourly; !- [J]
Output:Meter:Cumulative,ElectricityNet:Facility,hourly; !- [J]
Output:Meter,ElectricityNet:Plant,hourly; !- [J]
Output:Meter:Cumulative,ElectricityNet:Plant,hourly; !- [J]
Output:Meter,Cogeneration:ElectricityNet,hourly; !- [J]
Output:Meter:Cumulative,Cogeneration:ElectricityNet,hourly; !- [J]
Output:Meter,DistrictHeating:Facility,hourly; !- [J]
Output:Meter:Cumulative,DistrictHeating:Facility,hourly; !- [J]
Output:Meter,DistrictHeating:HVAC,hourly; !- [J]
Output:Meter:Cumulative,DistrictHeating:HVAC,hourly; !- [J]
Output:Meter,Heating:DistrictHeating,hourly; !- [J]
Output:Meter:Cumulative,Heating:DistrictHeating,hourly; !- [J]
Output:Meter,DistrictCooling:Facility,hourly; !- [J]
Output:Meter:Cumulative,DistrictCooling:Facility,hourly; !- [J]
Output:Meter,DistrictCooling:HVAC,hourly; !- [J]
Output:Meter:Cumulative,DistrictCooling:HVAC,hourly; !- [J]
Output:Meter,Cooling:DistrictCooling,hourly; !- [J]
Output:Meter:Cumulative,Cooling:DistrictCooling,hourly; !- [J]
Output:Meter,Carbon Equivalent:Facility,hourly; !- [kg]
Output:Meter:Cumulative,Carbon Equivalent:Facility,hourly; !- [kg]
Output:Meter,CarbonEquivalentEmissions:Carbon Equivalent,hourly; !- [kg]
Output:Meter:Cumulative,CarbonEquivalentEmissions:Carbon Equivalent,hourly; !- [kg]
