Program Version,EnergyPlus, Version 8.9.0-eba93e8e1b, YMD=2018.09.18 17:10
! <Version>, Version ID
 Version, 8.9
! <Timesteps per Hour>, #TimeSteps, Minutes per TimeStep {minutes}
 Timesteps per Hour,  6, 10
! <System Convergence Limits>, Minimum System TimeStep {minutes}, Max HVAC Iterations, Minimum Plant Iterations, Maximum Plant Iterations
 System Convergence Limits, 1, 20, 2, 8
! <Simulation Control>, Do Zone Sizing, Do System Sizing, Do Plant Sizing, Do Design Days, Do Weather Simulation, Do HVAC Sizing Simulation
 Simulation Control, Yes, Yes, Yes, Yes, No, No
! <Output Reporting Tolerances>, Tolerance for Time Heating Setpoint Not Met, Tolerance for Zone Cooling Setpoint Not Met Time
 Output Reporting Tolerances, 0.200, 0.200, 
! <Site:GroundTemperature:BuildingSurface>,Jan{C},Feb{C},Mar{C},Apr{C},May{C},Jun{C},Jul{C},Aug{C},Sep{C},Oct{C},Nov{C},Dec{C}
 Site:GroundTemperature:BuildingSurface,  19.53,  19.50,  19.54,  19.60,  20.00,  21.64,  22.23,  22.38,  21.45,  20.12,  19.80,  19.63
! <Site:GroundTemperature:FCfactorMethod>,Jan{C},Feb{C},Mar{C},Apr{C},May{C},Jun{C},Jul{C},Aug{C},Sep{C},Oct{C},Nov{C},Dec{C}
 Site:GroundTemperature:FCfactorMethod,   4.64,   4.08,   5.08,   6.66,  10.79,  13.98,  16.13,  16.78,  15.67,  13.19,   9.89,   6.82
! <Site:GroundTemperature:Shallow>,Jan{C},Feb{C},Mar{C},Apr{C},May{C},Jun{C},Jul{C},Aug{C},Sep{C},Oct{C},Nov{C},Dec{C}
 Site:GroundTemperature:Shallow,  13.00,  13.00,  13.00,  13.00,  13.00,  13.00,  13.00,  13.00,  13.00,  13.00,  13.00,  13.00
! <Site:GroundTemperature:Deep>,Jan{C},Feb{C},Mar{C},Apr{C},May{C},Jun{C},Jul{C},Aug{C},Sep{C},Oct{C},Nov{C},Dec{C}
 Site:GroundTemperature:Deep,  16.00,  16.00,  16.00,  16.00,  16.00,  16.00,  16.00,  16.00,  16.00,  16.00,  16.00,  16.00
! <Site:GroundReflectance>,Jan{dimensionless},Feb{dimensionless},Mar{dimensionless},Apr{dimensionless},May{dimensionless},Jun{dimensionless},Jul{dimensionless},Aug{dimensionless},Sep{dimensionless},Oct{dimensionless},Nov{dimensionless},Dec{dimensionless}
 Site:GroundReflectance,  0.20,  0.20,  0.20,  0.20,  0.20,  0.20,  0.20,  0.20,  0.20,  0.20,  0.20,  0.20
! <Site:GroundReflectance:SnowModifier>, Normal, Daylighting {dimensionless}
 Site:GroundReflectance:SnowModifier,   1.000,   1.000
! <Site:GroundReflectance:Snow>,Jan{dimensionless},Feb{dimensionless},Mar{dimensionless},Apr{dimensionless},May{dimensionless},Jun{dimensionless},Jul{dimensionless},Aug{dimensionless},Sep{dimensionless},Oct{dimensionless},Nov{dimensionless},Dec{dimensionless}
 Site:GroundReflectance:Snow,  0.20,  0.20,  0.20,  0.20,  0.20,  0.20,  0.20,  0.20,  0.20,  0.20,  0.20,  0.20
! <Site:GroundReflectance:Snow:Daylighting>,Jan{dimensionless},Feb{dimensionless},Mar{dimensionless},Apr{dimensionless},May{dimensionless},Jun{dimensionless},Jul{dimensionless},Aug{dimensionless},Sep{dimensionless},Oct{dimensionless},Nov{dimensionless},Dec{dimensionless}
 Site:GroundReflectance:Snow:Daylighting,  0.20,  0.20,  0.20,  0.20,  0.20,  0.20,  0.20,  0.20,  0.20,  0.20,  0.20,  0.20
! <Environment:Weather Station>,Wind Sensor Height Above Ground {m},Wind Speed Profile Exponent {},Wind Speed Profile Boundary Layer Thickness {m},Air Temperature Sensor Height Above Ground {m},Wind Speed Modifier Coefficient-Internal,Temperature Modifier Coefficient-Internal
Environment:Weather Station,10.000,0.140,270.000,1.500,1.586,9.750E-003
! <Site:Location>, Location Name, Latitude {N+/S- Deg}, Longitude {E+/W- Deg},  Time Zone Number {GMT+/-}, Elevation {m},  Standard Pressure at Elevation {Pa}, Standard RhoAir at Elevation
Site:Location,Vancouver Intl AP BC CAN CWEC2016 WMO#=718920,49.20,-123.18,-8.00,4.30,101273,1.2037
! <Building Information>, Building Name,North Axis {deg},Terrain,  Loads Convergence Tolerance Value,Temperature Convergence Tolerance Value,  Solar Distribution,Maximum Number of Warmup Days,Minimum Number of Warmup Days
 Building Information,SmallOffice-CAN_BC_Vancouver.Intl.AP.718920_CWEC2016.epw created: 2018-09-18 17:10:31 +0000,0.000,City,4.00000E-002,0.20000,FullInteriorAndExterior,25,6
! <Inside Convection Algorithm>, Algorithm {Simple | TARP | CeilingDiffuser | AdaptiveConvectionAlgorithm}
Inside Convection Algorithm,TARP
! <Outside Convection Algorithm>, Algorithm {SimpleCombined | TARP | MoWitt | DOE-2 | AdaptiveConvectionAlgorithm}
Outside Convection Algorithm,TARP
! <Sky Radiance Distribution>, Value {Anisotropic}
Sky Radiance Distribution,Anisotropic
! <Zone Air Solution Algorithm>, Value {ThirdOrderBackwardDifference | AnalyticalSolution | EulerMethod}
 Zone Air Solution Algorithm, ThirdOrderBackwardDifference
! <Zone Air Carbon Dioxide Balance Simulation>, Simulation {Yes/No}, Carbon Dioxide Concentration
 Zone Air Carbon Dioxide Balance Simulation, No,N/A
! <Zone Air Generic Contaminant Balance Simulation>, Simulation {Yes/No}, Generic Contaminant Concentration
 Zone Air Generic Contaminant Balance Simulation, No,N/A
! <Zone Air Mass Flow Balance Simulation>, Enforce Mass Balance, Adjust Zone Mixing, Adjust Zone Infiltration {AddInfiltration | AdjustInfiltration | None}, Infiltration Zones {MixingSourceZonesOnly | AllZones}
 Zone Air Mass Flow Balance Simulation, No,N/A,N/A,N/A
! <HVACSystemRootFindingAlgorithm>, Value {RegulaFalsi | Bisection | BisectionThenRegulaFalsi | RegulaFalsiThenBisection}
 HVACSystemRootFindingAlgorithm, RegulaFalsi
! <Environment:Site Atmospheric Variation>,Wind Speed Profile Exponent {},Wind Speed Profile Boundary Layer Thickness {m},Air Temperature Gradient Coefficient {K/m}
Environment:Site Atmospheric Variation,0.330,460.000,6.500000E-003
! <Surface Geometry>,Starting Corner,Vertex Input Direction,Coordinate System,Daylight Reference Point Coordinate System,Rectangular (Simple) Surface Coordinate System
 Surface Geometry,UpperLeftCorner,Counterclockwise,RelativeCoordinateSystem,RelativeCoordinateSystem,RelativeToZoneOrigin
! <Surface Heat Transfer Algorithm>, Value {CTF - ConductionTransferFunction | EMPD - MoisturePenetrationDepthConductionTransferFunction | CondFD - ConductionFiniteDifference | HAMT - CombinedHeatAndMoistureFiniteElement} - Description,Inside Surface Max Temperature Limit{C}, Surface Convection Coefficient Lower Limit {W/m2-K}, Surface Convection Coefficient Upper Limit {W/m2-K}
Surface Heat Transfer Algorithm, CTF - ConductionTransferFunction,200,0.10,1000.0
! <Shading Summary>, Number of Fixed Detached Shades, Number of Building Detached Shades, Number of Attached Shades
 Shading Summary,0,0,0
! <Zone Summary>, Number of Zones, Number of Zone Surfaces, Number of SubSurfaces
 Zone Summary,6,64,21
! <Zone Information>,Zone Name,North Axis {deg},Origin X-Coordinate {m},Origin Y-Coordinate {m},Origin Z-Coordinate {m},Centroid X-Coordinate {m},Centroid Y-Coordinate {m},Centroid Z-Coordinate {m},Type,Zone Multiplier,Zone List Multiplier,Minimum X {m},Maximum X {m},Minimum Y {m},Maximum Y {m},Minimum Z {m},Maximum Z {m},Ceiling Height {m},Volume {m3},Zone Inside Convection Algorithm {Simple-Detailed-CeilingDiffuser-TrombeWall},Zone Outside Convection Algorithm {Simple-Detailed-Tarp-MoWitt-DOE-2-BLAST}, Floor Area {m2},Exterior Gross Wall Area {m2},Exterior Net Wall Area {m2},Exterior Window Area {m2}, Number of Surfaces, Number of SubSurfaces, Number of Shading SubSurfaces,  Part of Total Building Area
 Zone Information, ATTIC ZN,0.0,0.00,0.00,0.00,13.85,9.23,3.70,1,1,1,-0.60,28.29,-0.60,19.06,3.05,6.33,1.64,720.19,TARP,TARP,567.98,0.00,0.00,0.00,13,0,0,No
 Zone Information, CORE_ZN ZN,0.0,0.00,0.00,0.00,13.85,9.23,1.53,1,1,1,5.00,22.69,5.00,13.46,0.00,3.05,3.05,456.46,TARP,TARP,149.66,0.00,0.00,0.00,6,0,0,Yes
 Zone Information, PERIMETER_ZN_1 ZN,0.0,0.00,0.00,0.00,13.85,2.21,1.53,1,1,1,0.00,27.69,0.00,5.00,0.00,3.05,3.05,346.02,TARP,TARP,113.45,84.45,63.82,16.73,6,7,0,Yes
 Zone Information, PERIMETER_ZN_2 ZN,0.0,0.00,0.00,0.00,25.64,9.23,1.53,1,1,1,22.69,27.69,0.00,18.46,0.00,3.05,3.05,205.27,TARP,TARP,67.30,56.30,45.15,11.16,6,4,0,Yes
 Zone Information, PERIMETER_ZN_3 ZN,0.0,0.00,0.00,0.00,13.85,16.25,1.53,1,1,1,0.00,27.69,13.46,18.46,0.00,3.05,3.05,346.02,TARP,TARP,113.45,84.45,67.72,16.73,6,6,0,Yes
 Zone Information, PERIMETER_ZN_4 ZN,0.0,0.00,0.00,0.00,2.05,9.23,1.53,1,1,1,0.00,5.00,0.00,18.46,0.00,3.05,3.05,205.27,TARP,TARP,67.30,56.30,45.15,11.16,6,4,0,Yes
! <Zone Internal Gains Nominal>,Zone Name, Floor Area {m2},# Occupants,Area per Occupant {m2/person},Occupant per Area {person/m2},Interior Lighting {W/m2},Electric Load {W/m2},Gas Load {W/m2},Other Load {W/m2},Hot Water Eq {W/m2},Steam Equipment {W/m2},Sum Loads per Area {W/m2},Outdoor Controlled Baseboard Heat
 Zone Internal Gains Nominal, ATTIC ZN,567.98,0.0,N/A,0.000,0.000,0.000,0.000,0.000,0.000,0.000,0.000,No
 Zone Internal Gains Nominal, CORE_ZN ZN,149.66,7.5,19.993,5.002E-002,12.004,7.503,0.000,0.000,0.000,0.000,19.507,No
 Zone Internal Gains Nominal, PERIMETER_ZN_1 ZN,113.45,5.7,19.993,5.002E-002,12.004,7.503,0.000,0.000,0.000,0.000,19.507,No
 Zone Internal Gains Nominal, PERIMETER_ZN_2 ZN,67.30,3.4,19.993,5.002E-002,12.004,7.503,0.000,0.000,0.000,0.000,19.507,No
 Zone Internal Gains Nominal, PERIMETER_ZN_3 ZN,113.45,5.7,19.993,5.002E-002,12.004,7.503,0.000,0.000,0.000,0.000,19.507,No
 Zone Internal Gains Nominal, PERIMETER_ZN_4 ZN,67.30,3.4,19.993,5.002E-002,12.004,7.503,0.000,0.000,0.000,0.000,19.507,No
! <People Internal Gains Nominal>,Name,Schedule Name,Zone Name,Zone Floor Area {m2},# Zone Occupants,Number of People {},People/Floor Area {person/m2},Floor Area per person {m2/person},Fraction Radiant,Fraction Convected,Sensible Fraction Calculation,Activity level,ASHRAE 55 Warnings,Carbon Dioxide Generation Rate,Nominal Minimum Number of People,Nominal Maximum Number of People
 People Internal Gains Nominal, CORE_ZN ZN SPACE FUNCTION OFFICE ENCLOSED > 25 M2 PEOPLE,NECB-A-OCCUPANCY,CORE_ZN ZN,149.66,7.5,7.5,5.002E-002,19.993,0.300,0.700,AutoCalculate,NECB-ACTIVITY,No,3.8200E-008,0,7
 People Internal Gains Nominal, PERIMETER_ZN_1 ZN SPACE FUNCTION OFFICE ENCLOSED > 25 M2 PEOPLE,NECB-A-OCCUPANCY,PERIMETER_ZN_1 ZN,113.45,5.7,5.7,5.002E-002,19.993,0.300,0.700,AutoCalculate,NECB-ACTIVITY,No,3.8200E-008,0,5
 People Internal Gains Nominal, PERIMETER_ZN_2 ZN SPACE FUNCTION OFFICE ENCLOSED > 25 M2 PEOPLE,NECB-A-OCCUPANCY,PERIMETER_ZN_2 ZN,67.30,3.4,3.4,5.002E-002,19.993,0.300,0.700,AutoCalculate,NECB-ACTIVITY,No,3.8200E-008,0,3
 People Internal Gains Nominal, PERIMETER_ZN_3 ZN SPACE FUNCTION OFFICE ENCLOSED > 25 M2 PEOPLE,NECB-A-OCCUPANCY,PERIMETER_ZN_3 ZN,113.45,5.7,5.7,5.002E-002,19.993,0.300,0.700,AutoCalculate,NECB-ACTIVITY,No,3.8200E-008,0,5
 People Internal Gains Nominal, PERIMETER_ZN_4 ZN SPACE FUNCTION OFFICE ENCLOSED > 25 M2 PEOPLE,NECB-A-OCCUPANCY,PERIMETER_ZN_4 ZN,67.30,3.4,3.4,5.002E-002,19.993,0.300,0.700,AutoCalculate,NECB-ACTIVITY,No,3.8200E-008,0,3
! <Lights Internal Gains Nominal>,Name,Schedule Name,Zone Name,Zone Floor Area {m2},# Zone Occupants,Lighting Level {W},Lights/Floor Area {W/m2},Lights per person {W/person},Fraction Return Air,Fraction Radiant,Fraction Short Wave,Fraction Convected,Fraction Replaceable,End-Use Category,Nominal Minimum Lighting Level {W},Nominal Maximum Lighting Level {W}
 Lights Internal Gains Nominal, CORE_ZN ZN SPACE FUNCTION OFFICE ENCLOSED > 25 M2 LIGHTS,NECB-A-OCCUPANCY-NECB-A-LIGHTING-0.3-0.1-0.67-LIGHT RULESET,CORE_ZN ZN,149.66,7.5,1796.541,12.004,240.000,0.000,0.500,0.200,0.300,1.000,General,62.789,1616.887
 Lights Internal Gains Nominal, PERIMETER_ZN_1 ZN SPACE FUNCTION OFFICE ENCLOSED > 25 M2 LIGHTS,NECB-A-OCCUPANCY-NECB-A-LIGHTING-0.3-0.1-0.67-LIGHT RULESET,PERIMETER_ZN_1 ZN,113.45,5.7,1361.895,12.004,240.000,0.000,0.500,0.200,0.300,1.000,General,47.598,1225.705
 Lights Internal Gains Nominal, PERIMETER_ZN_2 ZN SPACE FUNCTION OFFICE ENCLOSED > 25 M2 LIGHTS,NECB-A-OCCUPANCY-NECB-A-LIGHTING-0.3-0.1-0.67-LIGHT RULESET,PERIMETER_ZN_2 ZN,67.30,3.4,807.893,12.004,240.000,0.000,0.500,0.200,0.300,1.000,General,28.236,727.104
 Lights Internal Gains Nominal, PERIMETER_ZN_3 ZN SPACE FUNCTION OFFICE ENCLOSED > 25 M2 LIGHTS,NECB-A-OCCUPANCY-NECB-A-LIGHTING-0.3-0.1-0.67-LIGHT RULESET,PERIMETER_ZN_3 ZN,113.45,5.7,1361.895,12.004,240.000,0.000,0.500,0.200,0.300,1.000,General,47.598,1225.705
 Lights Internal Gains Nominal, PERIMETER_ZN_4 ZN SPACE FUNCTION OFFICE ENCLOSED > 25 M2 LIGHTS,NECB-A-OCCUPANCY-NECB-A-LIGHTING-0.3-0.1-0.67-LIGHT RULESET,PERIMETER_ZN_4 ZN,67.30,3.4,807.893,12.004,240.000,0.000,0.500,0.200,0.300,1.000,General,28.236,727.104
! <ElectricEquipment Internal Gains Nominal>,Name,Schedule Name,Zone Name,Zone Floor Area {m2},# Zone Occupants,Equipment Level {W},Equipment/Floor Area {W/m2},Equipment per person {W/person},Fraction Latent,Fraction Radiant,Fraction Lost,Fraction Convected,End-Use SubCategory,Nominal Minimum Equipment Level {W},Nominal Maximum Equipment Level {W}
 ElectricEquipment Internal Gains Nominal, CORE_ZN ZN SPACE FUNCTION OFFICE ENCLOSED > 25 M2 ELEC EQUIP,NECB-A-ELECTRIC-EQUIPMENT,CORE_ZN ZN,149.66,7.5,1122.838,7.503,150.000,0.000,0.500,0.000,0.500,General,224.568,1010.555
 ElectricEquipment Internal Gains Nominal, PERIMETER_ZN_1 ZN SPACE FUNCTION OFFICE ENCLOSED > 25 M2 ELEC EQUIP,NECB-A-ELECTRIC-EQUIPMENT,PERIMETER_ZN_1 ZN,113.45,5.7,851.184,7.503,150.000,0.000,0.500,0.000,0.500,General,170.237,766.066
 ElectricEquipment Internal Gains Nominal, PERIMETER_ZN_2 ZN SPACE FUNCTION OFFICE ENCLOSED > 25 M2 ELEC EQUIP,NECB-A-ELECTRIC-EQUIPMENT,PERIMETER_ZN_2 ZN,67.30,3.4,504.933,7.503,150.000,0.000,0.500,0.000,0.500,General,100.987,454.440
 ElectricEquipment Internal Gains Nominal, PERIMETER_ZN_3 ZN SPACE FUNCTION OFFICE ENCLOSED > 25 M2 ELEC EQUIP,NECB-A-ELECTRIC-EQUIPMENT,PERIMETER_ZN_3 ZN,113.45,5.7,851.184,7.503,150.000,0.000,0.500,0.000,0.500,General,170.237,766.066
 ElectricEquipment Internal Gains Nominal, PERIMETER_ZN_4 ZN SPACE FUNCTION OFFICE ENCLOSED > 25 M2 ELEC EQUIP,NECB-A-ELECTRIC-EQUIPMENT,PERIMETER_ZN_4 ZN,67.30,3.4,504.933,7.503,150.000,0.000,0.500,0.000,0.500,General,100.987,454.440
! <Shadowing/Sun Position Calculations Annual Simulations>, Calculation Method, Value {days}, Allowable Number Figures in Shadow Overlap {}, Polygon Clipping Algorithm, Sky Diffuse Modeling Algorithm, External Shading Calculation Method, Output External Shading Calculation Results, Disable Self-Shading Within Shading Zone Groups, Disable Self-Shading From Shading Zone Groups to Other Zones
Shadowing/Sun Position Calculations Annual Simulations,AverageOverDaysInFrequency,30,15000,SutherlandHodgman,SimpleSkyDiffuseModeling,InternalCalculation,No,No,No
! <ZoneInfiltration Airflow Stats Nominal>,Name,Schedule Name,Zone Name, Zone Floor Area {m2}, # Zone Occupants,Design Volume Flow Rate {m3/s},Volume Flow Rate/Floor Area {m3/s/m2},Volume Flow Rate/Exterior Surface Area {m3/s/m2},ACH - Air Changes per Hour,Equation A - Constant Term Coefficient {},Equation B - Temperature Term Coefficient {1/C},Equation C - Velocity Term Coefficient {s/m}, Equation D - Velocity Squared Term Coefficient {s2/m2}
 ZoneInfiltration Airflow Stats Nominal, ATTIC INFILTRATION,ALWAYS ON DISCRETE,ATTIC ZN,567.98,0.0,0.150,2.635E-004,2.283E-004,0.748,0.000,0.000,0.224,0.000
 ZoneInfiltration Airflow Stats Nominal, PERIMETER_ZN_1 INFILTRATION,ALWAYS ON DISCRETE,PERIMETER_ZN_1 ZN,113.45,5.7,2.209E-002,1.947E-004,2.500E-004,0.230,0.000,0.000,0.224,0.000
 ZoneInfiltration Airflow Stats Nominal, PERIMETER_ZN_2 INFILTRATION,ALWAYS ON DISCRETE,PERIMETER_ZN_2 ZN,67.30,3.4,1.408E-002,2.091E-004,2.500E-004,0.247,0.000,0.000,0.224,0.000
 ZoneInfiltration Airflow Stats Nominal, PERIMETER_ZN_3 INFILTRATION,ALWAYS ON DISCRETE,PERIMETER_ZN_3 ZN,113.45,5.7,2.111E-002,1.861E-004,2.500E-004,0.220,0.000,0.000,0.224,0.000
 ZoneInfiltration Airflow Stats Nominal, PERIMETER_ZN_4 INFILTRATION,ALWAYS ON DISCRETE,PERIMETER_ZN_4 ZN,67.30,3.4,1.408E-002,2.091E-004,2.500E-004,0.247,0.000,0.000,0.224,0.000
! <AirFlow Model>, Simple
 AirFlow Model, Simple
! <RoomAir Model>, Zone Name, Mixing/Mundt/UCSDDV/UCSDCV/UCSDUFI/UCSDUFE/User Defined
RoomAir Model,ATTIC ZN,Mixing/Well-Stirred
RoomAir Model,CORE_ZN ZN,Mixing/Well-Stirred
RoomAir Model,PERIMETER_ZN_1 ZN,Mixing/Well-Stirred
RoomAir Model,PERIMETER_ZN_2 ZN,Mixing/Well-Stirred
RoomAir Model,PERIMETER_ZN_3 ZN,Mixing/Well-Stirred
RoomAir Model,PERIMETER_ZN_4 ZN,Mixing/Well-Stirred
! <AirflowNetwork Model:Control>, No Multizone or Distribution/Multizone with Distribution/Multizone without Distribution/Multizone with Distribution only during Fan Operation
AirflowNetwork Model:Control,NoMultizoneOrDistribution
! <Zone Volume Capacitance Multiplier>, Sensible Heat Capacity Multiplier, Moisture Capacity Multiplier, Carbon Dioxide Capacity Multiplier, Generic Contaminant Capacity Multiplier
Zone Volume Capacitance Multiplier,   1.000 ,   1.000,   1.000,   1.000
! <Load Timesteps in Zone Design Calculation Averaging Window>, Value
 Load Timesteps in Zone Design Calculation Averaging Window,    6
! <Heating Sizing Factor Information>, Sizing Factor ID, Value
 Heating Sizing Factor Information, Global,   1.2500    
 Heating Sizing Factor Information, Zone ATTIC ZN,   1.2500    
 Heating Sizing Factor Information, Zone CORE_ZN ZN,   1.2500    
 Heating Sizing Factor Information, Zone PERIMETER_ZN_1 ZN,   1.2500    
 Heating Sizing Factor Information, Zone PERIMETER_ZN_2 ZN,   1.2500    
 Heating Sizing Factor Information, Zone PERIMETER_ZN_3 ZN,   1.2500    
 Heating Sizing Factor Information, Zone PERIMETER_ZN_4 ZN,   1.2500    
! <Cooling Sizing Factor Information>, Sizing Factor ID, Value
 Cooling Sizing Factor Information, Global,   1.1500    
 Cooling Sizing Factor Information, Zone ATTIC ZN,   1.1500    
 Cooling Sizing Factor Information, Zone CORE_ZN ZN,   1.1500    
 Cooling Sizing Factor Information, Zone PERIMETER_ZN_1 ZN,   1.1500    
 Cooling Sizing Factor Information, Zone PERIMETER_ZN_2 ZN,   1.1500    
 Cooling Sizing Factor Information, Zone PERIMETER_ZN_3 ZN,   1.1500    
 Cooling Sizing Factor Information, Zone PERIMETER_ZN_4 ZN,   1.1500    
! <Zone Sizing Information>, Zone Name, Load Type, Calc Des Load {W}, User Des Load {W}, Calc Des Air Flow Rate {m3/s}, User Des Air Flow Rate {m3/s}, Design Day Name, Date/Time of Peak, Temperature at Peak {C}, Humidity Ratio at Peak {kgWater/kgDryAir}, Floor Area {m2}, # Occupants, Calc Outdoor Air Flow Rate {m3/s}, Calc DOAS Heat Addition Rate {W}
 Zone Sizing Information, CORE_ZN ZN, Cooling, 3229.21346, 3713.59548, 0.26288, 0.30231, VANCOUVER INTL AP ANN CLG .4% CONDNS DB=>MWB, 7/21 17:00:00, 24.03600, 1.06257E-002, 149.65740, 7.48559, 6.31015E-002, 0.00000
 Zone Sizing Information, CORE_ZN ZN, Heating, 2550.11801, 3187.64751, 0.11266, 0.14082, VANCOUVER INTL AP ANN HTG 99.6% CONDNS DB, 12/21 08:00:00, -6.10000, 2.25331E-003, 149.65740, 7.48559, 6.31015E-002, 0.00000
 Zone Sizing Information, PERIMETER_ZN_1 ZN, Cooling, 3641.27702, 4187.46858, 0.29642, 0.34088, VANCOUVER INTL AP ANN CLG .4% CONDNS DB=>MWB, 7/21 13:20:00, 24.84667, 1.06257E-002, 113.45000, 5.67456, 4.78351E-002, 0.00000
 Zone Sizing Information, PERIMETER_ZN_1 ZN, Heating, 3528.01837, 4410.02296, 0.15735, 0.19669, VANCOUVER INTL AP ANN HTG 99.6% CONDNS DB, 12/21 08:00:00, -6.10000, 2.25331E-003, 113.45000, 5.67456, 4.78351E-002, 0.00000
 Zone Sizing Information, PERIMETER_ZN_2 ZN, Cooling, 3491.47882, 4015.20065, 0.28422, 0.32685, VANCOUVER INTL AP ANN CLG .4% CONDNS DB=>MWB, 7/21 09:20:00, 21.35067, 1.06257E-002, 67.30000, 3.36622, 2.83764E-002, 0.00000
 Zone Sizing Information, PERIMETER_ZN_2 ZN, Heating, 2219.60985, 2774.51231, 9.90484E-002, 0.12381, VANCOUVER INTL AP ANN HTG 99.6% CONDNS DB, 12/21 08:00:00, -6.10000, 2.25331E-003, 67.30000, 3.36622, 2.83764E-002, 0.00000
 Zone Sizing Information, PERIMETER_ZN_3 ZN, Cooling, 2868.68316, 3298.98563, 0.23353, 0.26856, VANCOUVER INTL AP ANN CLG .4% CONDNS DB=>MWB, 7/21 17:00:00, 24.03600, 1.06257E-002, 113.45000, 5.67456, 4.78351E-002, 0.00000
 Zone Sizing Information, PERIMETER_ZN_3 ZN, Heating, 3420.27976, 4275.34970, 0.15250, 0.19063, VANCOUVER INTL AP ANN HTG 99.6% CONDNS DB, 12/21 08:00:00, -6.10000, 2.25331E-003, 113.45000, 5.67456, 4.78351E-002, 0.00000
 Zone Sizing Information, PERIMETER_ZN_4 ZN, Cooling, 3931.53692, 4521.26745, 0.32005, 0.36806, VANCOUVER INTL AP ANN CLG .4% CONDNS DB=>MWB, 7/21 17:20:00, 23.78267, 1.06257E-002, 67.30000, 3.36622, 2.83764E-002, 0.00000
 Zone Sizing Information, PERIMETER_ZN_4 ZN, Heating, 2211.71087, 2764.63859, 9.86929E-002, 0.12337, VANCOUVER INTL AP ANN HTG 99.6% CONDNS DB, 12/21 08:00:00, -6.10000, 2.25331E-003, 67.30000, 3.36622, 2.83764E-002, 0.00000
! <Component Sizing Information>, Component Type, Component Name, Input Field Description, Value
 Component Sizing Information, ZoneHVAC:IdealLoadsAirSystem, ZONE HVAC IDEAL LOADS AIR SYSTEM 1, User-Specified Maximum Heating Air Flow Rate [m3/s], 0.00000
 Component Sizing Information, ZoneHVAC:IdealLoadsAirSystem, ZONE HVAC IDEAL LOADS AIR SYSTEM 1, User-Specified Maximum Cooling Air Flow Rate [m3/s], 0.00000
 Component Sizing Information, ZoneHVAC:IdealLoadsAirSystem, ZONE HVAC IDEAL LOADS AIR SYSTEM 2, User-Specified Maximum Heating Air Flow Rate [m3/s], 0.00000
 Component Sizing Information, ZoneHVAC:IdealLoadsAirSystem, ZONE HVAC IDEAL LOADS AIR SYSTEM 2, User-Specified Maximum Cooling Air Flow Rate [m3/s], 0.00000
 Component Sizing Information, ZoneHVAC:IdealLoadsAirSystem, ZONE HVAC IDEAL LOADS AIR SYSTEM 3, User-Specified Maximum Heating Air Flow Rate [m3/s], 0.00000
 Component Sizing Information, ZoneHVAC:IdealLoadsAirSystem, ZONE HVAC IDEAL LOADS AIR SYSTEM 3, User-Specified Maximum Cooling Air Flow Rate [m3/s], 0.00000
 Component Sizing Information, ZoneHVAC:IdealLoadsAirSystem, ZONE HVAC IDEAL LOADS AIR SYSTEM 4, User-Specified Maximum Heating Air Flow Rate [m3/s], 0.00000
 Component Sizing Information, ZoneHVAC:IdealLoadsAirSystem, ZONE HVAC IDEAL LOADS AIR SYSTEM 4, User-Specified Maximum Cooling Air Flow Rate [m3/s], 0.00000
 Component Sizing Information, ZoneHVAC:IdealLoadsAirSystem, ZONE HVAC IDEAL LOADS AIR SYSTEM 5, User-Specified Maximum Heating Air Flow Rate [m3/s], 0.00000
 Component Sizing Information, ZoneHVAC:IdealLoadsAirSystem, ZONE HVAC IDEAL LOADS AIR SYSTEM 5, User-Specified Maximum Cooling Air Flow Rate [m3/s], 0.00000
 Component Sizing Information, ZoneHVAC:IdealLoadsAirSystem, ZONE HVAC IDEAL LOADS AIR SYSTEM 6, User-Specified Maximum Heating Air Flow Rate [m3/s], 0.00000
 Component Sizing Information, ZoneHVAC:IdealLoadsAirSystem, ZONE HVAC IDEAL LOADS AIR SYSTEM 6, User-Specified Maximum Cooling Air Flow Rate [m3/s], 0.00000
! <Environment>,Environment Name,Environment Type, Start Date, End Date, Start DayOfWeek, Duration {#days}, Source:Start DayOfWeek,  Use Daylight Saving, Use Holidays, Apply Weekend Holiday Rule,  Use Rain Values, Use Snow Values
! <Environment:Special Days>, Special Day Name, Special Day Type, Source, Start Date, Duration {#days}
! <Environment:Daylight Saving>, Daylight Saving Indicator, Source, Start Date, End Date
! <Environment:WarmupDays>, NumberofWarmupDays
Environment,VANCOUVER INTL AP ANN CLG .4% CONDNS DB=>MWB,SizingPeriod:DesignDay,07/21,07/21,SummerDesignDay,1,N/A,N/A,N/A,N/A,N/A,N/A
Environment:Daylight Saving,No,SizingPeriod:DesignDay
! <Environment:Design Day Data>, Max Dry-Bulb Temp {C}, Temp Range {dC}, Temp Range Ind Type, Hum Ind Value at Max Temp, Hum Ind Type,Pressure {Pa}, Wind Direction {deg CW from N}, Wind Speed {m/s}, Clearness, Rain, Snow
! <Environment:Design Day Misc>,DayOfYear,ASHRAE A Coeff,ASHRAE B Coeff,ASHRAE C Coeff,Solar Constant-Annual Variation,Eq of Time {minutes}, Solar Declination Angle {deg}, Solar Model
Environment:Design Day Data,25.10,7.60,DefaultMultipliers,101273,300,3.7,0.00,No,No
Environment:Design Day Misc,202,1084.4,0.2082,0.1365,1.0,-6.23,20.6,ASHRAETau
Environment:WarmupDays,  6
! <Tabular Report>,Style,Unit Conversion
Tabular Report,HTML,None
! <Warmup Convergence Information>,Zone Name,Environment Type/Name,Average Warmup Temperature Difference {deltaC},Std Dev Warmup Temperature Difference {deltaC},Max Temperature Pass/Fail Convergence,Min Temperature Pass/Fail Convergence,Average Warmup Load Difference {W},Std Dev Warmup Load Difference {W},Heating Load Pass/Fail Convergence,Cooling Load Pass/Fail Convergence
 Warmup Convergence Information,ATTIC ZN,SizingPeriod: VANCOUVER INTL AP ANN CLG .4% CONDNS DB=>MWB,7.0560789248E-002,4.4248793076E-002,Pass,Pass,0.0000000000,0.0000000000,Pass,Pass
 Warmup Convergence Information,CORE_ZN ZN,SizingPeriod: VANCOUVER INTL AP ANN CLG .4% CONDNS DB=>MWB,2.2222258623E-002,7.5009522965E-002,Pass,Pass,4.9208241611E-002,0.2720726523,Pass,Pass
 Warmup Convergence Information,PERIMETER_ZN_1 ZN,SizingPeriod: VANCOUVER INTL AP ANN CLG .4% CONDNS DB=>MWB,2.1063714348E-002,6.8700543697E-002,Pass,Pass,5.7960749939E-002,0.3092035215,Pass,Pass
 Warmup Convergence Information,PERIMETER_ZN_2 ZN,SizingPeriod: VANCOUVER INTL AP ANN CLG .4% CONDNS DB=>MWB,5.4415599951E-002,0.2509660409,Pass,Pass,7.4955756979E-002,0.3919365445,Pass,Pass
 Warmup Convergence Information,PERIMETER_ZN_3 ZN,SizingPeriod: VANCOUVER INTL AP ANN CLG .4% CONDNS DB=>MWB,2.5607724224E-002,8.5385307148E-002,Pass,Pass,6.5289097316E-002,0.3202600854,Pass,Pass
 Warmup Convergence Information,PERIMETER_ZN_4 ZN,SizingPeriod: VANCOUVER INTL AP ANN CLG .4% CONDNS DB=>MWB,2.9182186750E-002,0.1086147060,Pass,Pass,8.3185901434E-002,0.4316495056,Pass,Pass
Environment,VANCOUVER INTL AP ANN HTG 99.6% CONDNS DB,SizingPeriod:DesignDay,12/21,12/21,WinterDesignDay,1,N/A,N/A,N/A,N/A,N/A,N/A
Environment:Daylight Saving,No,SizingPeriod:DesignDay
Environment:Design Day Data,-6.10,0.00,DefaultMultipliers,101273,100,3.0,0.00,No,No
Environment:Design Day Misc,355,1232.8,0.1424,5.7719E-002,1.0,2.45,-23.5,ASHRAEClearSky
Environment:WarmupDays,  6
 Warmup Convergence Information,ATTIC ZN,SizingPeriod: VANCOUVER INTL AP ANN HTG 99.6% CONDNS DB,2.0589632607E-002,9.0405616691E-003,Pass,Pass,0.0000000000,0.0000000000,Pass,Pass
 Warmup Convergence Information,CORE_ZN ZN,SizingPeriod: VANCOUVER INTL AP ANN HTG 99.6% CONDNS DB,6.0858690040E-002,0.3205330474,Pass,Pass,0.3138566758,0.8425872434,Pass,Pass
 Warmup Convergence Information,PERIMETER_ZN_1 ZN,SizingPeriod: VANCOUVER INTL AP ANN HTG 99.6% CONDNS DB,5.7842329222E-002,0.3321009952,Pass,Pass,0.1542245095,0.6430436303,Pass,Pass
 Warmup Convergence Information,PERIMETER_ZN_2 ZN,SizingPeriod: VANCOUVER INTL AP ANN HTG 99.6% CONDNS DB,5.7669901141E-002,0.3313446161,Pass,Pass,0.1428415208,0.5382415425,Pass,Pass
 Warmup Convergence Information,PERIMETER_ZN_3 ZN,SizingPeriod: VANCOUVER INTL AP ANN HTG 99.6% CONDNS DB,5.7958498023E-002,0.3314746576,Pass,Pass,0.1580825000,0.5735227882,Pass,Pass
 Warmup Convergence Information,PERIMETER_ZN_4 ZN,SizingPeriod: VANCOUVER INTL AP ANN HTG 99.6% CONDNS DB,5.7682613866E-002,0.3312517309,Pass,Pass,0.1432378884,0.5320315089,Pass,Pass
! <Program Control Information:Threads/Parallel Sims>, Threading Supported,Maximum Number of Threads, Env Set Threads (OMP_NUM_THREADS), EP Env Set Threads (EP_OMP_NUM_THREADS), IDF Set Threads, Number of Threads Used (Interior Radiant Exchange), Number Nominal Surfaces, Number Parallel Sims
Program Control:Threads/Parallel Sims, No,1, N/A, N/A, N/A, N/A, N/A, N/A
End of Data
