Program Version,EnergyPlus, Version 8.9.0-eba93e8e1b, YMD=2018.09.18 17:38
! <Version>, Version ID
 Version, 8.9
! <Timesteps per Hour>, #TimeSteps, Minutes per TimeStep {minutes}
 Timesteps per Hour,  4, 15
! <System Convergence Limits>, Minimum System TimeStep {minutes}, Max HVAC Iterations, Minimum Plant Iterations, Maximum Plant Iterations
 System Convergence Limits, 1, 20, 2, 8
! <Simulation Control>, Do Zone Sizing, Do System Sizing, Do Plant Sizing, Do Design Days, Do Weather Simulation, Do HVAC Sizing Simulation
 Simulation Control, Yes, Yes, Yes, Yes, No, No
! <Output Reporting Tolerances>, Tolerance for Time Heating Setpoint Not Met, Tolerance for Zone Cooling Setpoint Not Met Time
 Output Reporting Tolerances, 1.000, 1.000, 
! <Site:GroundTemperature:BuildingSurface>,Jan{C},Feb{C},Mar{C},Apr{C},May{C},Jun{C},Jul{C},Aug{C},Sep{C},Oct{C},Nov{C},Dec{C}
 Site:GroundTemperature:BuildingSurface,  19.53,  19.50,  19.54,  19.60,  20.00,  21.64,  22.23,  22.38,  21.45,  20.12,  19.80,  19.63
! <Site:GroundTemperature:FCfactorMethod>,Jan{C},Feb{C},Mar{C},Apr{C},May{C},Jun{C},Jul{C},Aug{C},Sep{C},Oct{C},Nov{C},Dec{C}
 Site:GroundTemperature:FCfactorMethod,   4.64,   4.08,   5.08,   6.66,  10.79,  13.98,  16.13,  16.78,  15.67,  13.19,   9.89,   6.82
! <Site:GroundTemperature:Shallow>,Jan{C},Feb{C},Mar{C},Apr{C},May{C},Jun{C},Jul{C},Aug{C},Sep{C},Oct{C},Nov{C},Dec{C}
 Site:GroundTemperature:Shallow,  13.00,  13.00,  13.00,  13.00,  13.00,  13.00,  13.00,  13.00,  13.00,  13.00,  13.00,  13.00
! <Site:GroundTemperature:Deep>,Jan{C},Feb{C},Mar{C},Apr{C},May{C},Jun{C},Jul{C},Aug{C},Sep{C},Oct{C},Nov{C},Dec{C}
 Site:GroundTemperature:Deep,  16.00,  16.00,  16.00,  16.00,  16.00,  16.00,  16.00,  16.00,  16.00,  16.00,  16.00,  16.00
! <Site:GroundReflectance>,Jan{dimensionless},Feb{dimensionless},Mar{dimensionless},Apr{dimensionless},May{dimensionless},Jun{dimensionless},Jul{dimensionless},Aug{dimensionless},Sep{dimensionless},Oct{dimensionless},Nov{dimensionless},Dec{dimensionless}
 Site:GroundReflectance,  0.20,  0.20,  0.20,  0.20,  0.20,  0.20,  0.20,  0.20,  0.20,  0.20,  0.20,  0.20
! <Site:GroundReflectance:SnowModifier>, Normal, Daylighting {dimensionless}
 Site:GroundReflectance:SnowModifier,   1.000,   1.000
! <Site:GroundReflectance:Snow>,Jan{dimensionless},Feb{dimensionless},Mar{dimensionless},Apr{dimensionless},May{dimensionless},Jun{dimensionless},Jul{dimensionless},Aug{dimensionless},Sep{dimensionless},Oct{dimensionless},Nov{dimensionless},Dec{dimensionless}
 Site:GroundReflectance:Snow,  0.20,  0.20,  0.20,  0.20,  0.20,  0.20,  0.20,  0.20,  0.20,  0.20,  0.20,  0.20
! <Site:GroundReflectance:Snow:Daylighting>,Jan{dimensionless},Feb{dimensionless},Mar{dimensionless},Apr{dimensionless},May{dimensionless},Jun{dimensionless},Jul{dimensionless},Aug{dimensionless},Sep{dimensionless},Oct{dimensionless},Nov{dimensionless},Dec{dimensionless}
 Site:GroundReflectance:Snow:Daylighting,  0.20,  0.20,  0.20,  0.20,  0.20,  0.20,  0.20,  0.20,  0.20,  0.20,  0.20,  0.20
! <Environment:Weather Station>,Wind Sensor Height Above Ground {m},Wind Speed Profile Exponent {},Wind Speed Profile Boundary Layer Thickness {m},Air Temperature Sensor Height Above Ground {m},Wind Speed Modifier Coefficient-Internal,Temperature Modifier Coefficient-Internal
Environment:Weather Station,10.000,0.140,270.000,1.500,1.586,9.750E-003
! <Site:Location>, Location Name, Latitude {N+/S- Deg}, Longitude {E+/W- Deg},  Time Zone Number {GMT+/-}, Elevation {m},  Standard Pressure at Elevation {Pa}, Standard RhoAir at Elevation
Site:Location,Vancouver Intl AP BC CAN CWEC2016 WMO#=718920,49.20,-123.18,-8.00,4.30,101273,1.2037
! <Building Information>, Building Name,North Axis {deg},Terrain,  Loads Convergence Tolerance Value,Temperature Convergence Tolerance Value,  Solar Distribution,Maximum Number of Warmup Days,Minimum Number of Warmup Days
 Building Information,SmallHotel-CAN_BC_Vancouver.Intl.AP.718920_CWEC2016.epw created: 2018-09-18 17:35:47 +0000,180.000,Suburbs,4.00000E-002,0.40000,FullExterior,25,6
! <Inside Convection Algorithm>, Algorithm {Simple | TARP | CeilingDiffuser | AdaptiveConvectionAlgorithm}
Inside Convection Algorithm,TARP
! <Outside Convection Algorithm>, Algorithm {SimpleCombined | TARP | MoWitt | DOE-2 | AdaptiveConvectionAlgorithm}
Outside Convection Algorithm,TARP
! <Sky Radiance Distribution>, Value {Anisotropic}
Sky Radiance Distribution,Anisotropic
! <Zone Air Solution Algorithm>, Value {ThirdOrderBackwardDifference | AnalyticalSolution | EulerMethod}
 Zone Air Solution Algorithm, ThirdOrderBackwardDifference
! <Zone Air Carbon Dioxide Balance Simulation>, Simulation {Yes/No}, Carbon Dioxide Concentration
 Zone Air Carbon Dioxide Balance Simulation, No,N/A
! <Zone Air Generic Contaminant Balance Simulation>, Simulation {Yes/No}, Generic Contaminant Concentration
 Zone Air Generic Contaminant Balance Simulation, No,N/A
! <Zone Air Mass Flow Balance Simulation>, Enforce Mass Balance, Adjust Zone Mixing, Adjust Zone Infiltration {AddInfiltration | AdjustInfiltration | None}, Infiltration Zones {MixingSourceZonesOnly | AllZones}
 Zone Air Mass Flow Balance Simulation, No,N/A,N/A,N/A
! <HVACSystemRootFindingAlgorithm>, Value {RegulaFalsi | Bisection | BisectionThenRegulaFalsi | RegulaFalsiThenBisection}
 HVACSystemRootFindingAlgorithm, RegulaFalsi
! <Environment:Site Atmospheric Variation>,Wind Speed Profile Exponent {},Wind Speed Profile Boundary Layer Thickness {m},Air Temperature Gradient Coefficient {K/m}
Environment:Site Atmospheric Variation,0.220,370.000,6.500000E-003
! <Surface Geometry>,Starting Corner,Vertex Input Direction,Coordinate System,Daylight Reference Point Coordinate System,Rectangular (Simple) Surface Coordinate System
 Surface Geometry,UpperLeftCorner,Counterclockwise,RelativeCoordinateSystem,RelativeCoordinateSystem,RelativeToZoneOrigin
! <Surface Heat Transfer Algorithm>, Value {CTF - ConductionTransferFunction | EMPD - MoisturePenetrationDepthConductionTransferFunction | CondFD - ConductionFiniteDifference | HAMT - CombinedHeatAndMoistureFiniteElement} - Description,Inside Surface Max Temperature Limit{C}, Surface Convection Coefficient Lower Limit {W/m2-K}, Surface Convection Coefficient Upper Limit {W/m2-K}
Surface Heat Transfer Algorithm, CTF - ConductionTransferFunction,200,0.10,1000.0
! <Shading Summary>, Number of Fixed Detached Shades, Number of Building Detached Shades, Number of Attached Shades
 Shading Summary,0,0,2
! <Zone Summary>, Number of Zones, Number of Zone Surfaces, Number of SubSurfaces
 Zone Summary,67,588,103
! <Zone Information>,Zone Name,North Axis {deg},Origin X-Coordinate {m},Origin Y-Coordinate {m},Origin Z-Coordinate {m},Centroid X-Coordinate {m},Centroid Y-Coordinate {m},Centroid Z-Coordinate {m},Type,Zone Multiplier,Zone List Multiplier,Minimum X {m},Maximum X {m},Minimum Y {m},Maximum Y {m},Minimum Z {m},Maximum Z {m},Ceiling Height {m},Volume {m3},Zone Inside Convection Algorithm {Simple-Detailed-CeilingDiffuser-TrombeWall},Zone Outside Convection Algorithm {Simple-Detailed-Tarp-MoWitt-DOE-2-BLAST}, Floor Area {m2},Exterior Gross Wall Area {m2},Exterior Net Wall Area {m2},Exterior Window Area {m2}, Number of Surfaces, Number of SubSurfaces, Number of Shading SubSurfaces,  Part of Total Building Area
 Zone Information, SP-CORRIDORFLR1 SYS-3 FLR-1 SCH-F HPLCMT-NORTH ZN,0.0,0.00,0.00,0.00,-26.68,-9.43,1.68,1,1,1,-54.91,-4.87E-002,-18.34,-4.88E-002,0.00,3.35,3.35,504.62,TARP,TARP,150.51,32.70,22.89,9.82,29,3,2,Yes
 Zone Information, SP-CORRIDORFLR2 SYS-3 FLR-2 SCH-F HPLCMT-NORTH ZN,0.0,0.00,0.00,0.00,-26.88,-10.72,4.72,1,1,1,-54.91,-4.87E-002,-18.34,-8.28,3.35,6.10,2.74,344.05,TARP,TARP,125.42,18.39,15.77,2.62,22,2,0,Yes
 Zone Information, SP-CORRIDORFLR3 SYS-3 FLR-3 SCH-F HPLCMT-NORTH ZN,0.0,0.00,0.00,0.00,-26.88,-10.72,7.47,1,1,1,-54.91,-4.87E-002,-18.34,-8.28,6.10,8.84,2.74,344.05,TARP,TARP,125.42,18.39,15.77,2.62,22,2,0,Yes
 Zone Information, SP-CORRIDORFLR4 SYS-3 FLR-4 SCH-F HPLCMT-NORTH ZN,0.0,0.00,0.00,0.00,-26.88,-10.72,10.21,1,1,1,-54.91,-4.87E-002,-18.34,-8.28,8.84,11.58,2.74,344.05,TARP,TARP,125.42,18.39,15.77,2.62,22,2,0,Yes
 Zone Information, SP-ELEVATORCOREFLR1 SYS-3 FLR-1 SCH-C HPLCMT-NORTH ZN,0.0,0.00,0.00,0.00,-27.79,-14.22,1.68,1,1,1,-28.70,-26.87,-18.34,-10.11,0.00,3.35,3.35,50.46,TARP,TARP,15.05,6.13,6.13,0.00,6,0,0,Yes
 Zone Information, SP-ELEVATORCOREFLR2 SYS-3 FLR-2 SCH-C HPLCMT-NORTH ZN,0.0,0.00,0.00,0.00,-27.79,-14.22,4.72,1,1,1,-28.70,-26.87,-18.34,-10.11,3.35,6.10,2.74,41.29,TARP,TARP,15.05,5.02,5.02,0.00,6,0,0,Yes
 Zone Information, SP-ELEVATORCOREFLR3 SYS-3 FLR-3 SCH-C HPLCMT-NORTH ZN,0.0,0.00,0.00,0.00,-27.79,-14.22,7.47,1,1,1,-28.70,-26.87,-18.34,-10.11,6.10,8.84,2.74,41.29,TARP,TARP,15.05,5.02,5.02,0.00,6,0,0,Yes
 Zone Information, SP-ELEVATORCOREFLR4 SYS-3 FLR-4 SCH-C HPLCMT-NORTH ZN,0.0,0.00,0.00,0.00,-27.79,-14.22,10.21,1,1,1,-28.70,-26.87,-18.34,-10.11,8.84,11.58,2.74,41.29,TARP,TARP,15.05,5.02,5.02,0.00,6,0,0,Yes
 Zone Information, SP-EMPLOYEELOUNGEFLR1 SYS-3 FLR-1 SCH-B HPLCMT-NORTH ZN,0.0,0.00,0.00,0.00,-42.57,-14.22,1.68,1,1,1,-44.55,-40.59,-18.34,-10.11,0.00,3.35,3.35,109.33,TARP,TARP,32.61,13.29,11.64,1.65,6,1,0,Yes
 Zone Information, SP-EXERCISECENTERFLR1 SYS-6 FLR-1 SCH-B HPLCMT-NORTH ZN,0.0,0.00,0.00,0.00,-21.84,-14.22,1.68,1,1,1,-23.82,-19.86,-18.34,-10.11,0.00,3.35,3.35,109.33,TARP,TARP,32.61,13.29,11.64,1.65,6,1,0,Yes
 Zone Information, SP-FRONTLOUNGEFLR1 SYS-3 FLR-1 SCH-H HPLCMT-SOUTH ZN,0.0,0.00,0.00,0.00,-9.95,-4.16,1.68,1,1,1,-19.86,-4.87E-002,-8.28,-4.88E-002,0.00,3.35,3.35,546.70,TARP,TARP,163.06,94.02,79.19,14.83,7,5,0,Yes
 Zone Information, SP-FRONTOFFICEFLR1 SYS-6 FLR-1 SCH-A HPLCMT-NORTH ZN,0.0,0.00,0.00,0.00,-11.94,-14.22,1.68,1,1,1,-19.86,-4.01,-18.34,-10.11,0.00,3.35,3.35,437.33,TARP,TARP,130.44,53.14,46.56,6.58,7,4,0,Yes
 Zone Information, SP-FRONTSTAIRSFLR1 SYS-3 FLR-1 SCH-F HPLCMT-WEST ZN,0.0,0.00,0.00,0.00,-1.27,-14.22,1.68,1,1,1,-2.49,-4.87E-002,-18.34,-10.11,0.00,3.35,3.35,67.28,TARP,TARP,20.07,35.77,35.77,0.00,6,0,0,Yes
 Zone Information, SP-FRONTSTAIRSFLR2 SYS-3 FLR-2 SCH-F HPLCMT-WEST ZN,0.0,0.00,0.00,0.00,-1.27,-14.22,4.72,1,1,1,-2.49,-4.87E-002,-18.34,-10.11,3.35,6.10,2.74,55.05,TARP,TARP,20.07,29.26,29.26,0.00,6,0,0,Yes
 Zone Information, SP-FRONTSTAIRSFLR3 SYS-3 FLR-3 SCH-F HPLCMT-WEST ZN,0.0,0.00,0.00,0.00,-1.27,-14.22,7.47,1,1,1,-2.49,-4.87E-002,-18.34,-10.11,6.10,8.84,2.74,55.05,TARP,TARP,20.07,29.26,29.26,0.00,6,0,0,Yes
 Zone Information, SP-FRONTSTAIRSFLR4 SYS-3 FLR-4 SCH-F HPLCMT-WEST ZN,0.0,0.00,0.00,0.00,-1.27,-14.22,10.21,1,1,1,-2.49,-4.87E-002,-18.34,-10.11,8.84,11.58,2.74,55.05,TARP,TARP,20.07,29.26,29.26,0.00,6,0,0,Yes
 Zone Information, SP-FRONTSTORAGEFLR1 SYS-4 FLR-1 SCH-F HPLCMT-NORTH ZN,0.0,0.00,0.00,0.00,-3.25,-14.22,1.68,1,1,1,-4.01,-2.49,-18.34,-10.11,0.00,3.35,3.35,42.05,TARP,TARP,12.54,5.11,5.11,0.00,6,0,0,Yes
 Zone Information, SP-FRONTSTORAGEFLR2 SYS-4 FLR-2 SCH-F HPLCMT-NORTH ZN,0.0,0.00,0.00,0.00,-3.25,-14.22,4.72,1,1,1,-4.01,-2.49,-18.34,-10.11,3.35,6.10,2.74,34.40,TARP,TARP,12.54,4.18,4.18,0.00,6,0,0,Yes
 Zone Information, SP-FRONTSTORAGEFLR3 SYS-4 FLR-3 SCH-F HPLCMT-NORTH ZN,0.0,0.00,0.00,0.00,-3.25,-14.22,7.47,1,1,1,-4.01,-2.49,-18.34,-10.11,6.10,8.84,2.74,34.40,TARP,TARP,12.54,4.18,4.18,0.00,6,0,0,Yes
 Zone Information, SP-FRONTSTORAGEFLR4 SYS-4 FLR-4 SCH-F HPLCMT-NORTH ZN,0.0,0.00,0.00,0.00,-3.25,-14.22,10.21,1,1,1,-4.01,-2.49,-18.34,-10.11,8.84,11.58,2.74,34.40,TARP,TARP,12.54,4.18,4.18,0.00,6,0,0,Yes
 Zone Information, SP-GUESTROOM101 SYS-1 FLR-1 SCH-F HPLCMT-SOUTH ZN,0.0,0.00,0.00,0.00,-42.57,-4.16,1.68,1,1,1,-44.55,-40.59,-8.28,-4.88E-002,0.00,3.35,3.35,109.34,TARP,TARP,32.61,13.29,11.64,1.65,6,1,0,Yes
 Zone Information, SP-GUESTROOM102 SYS-1 FLR-1 SCH-F HPLCMT-SOUTH ZN,0.0,0.00,0.00,0.00,-46.53,-4.16,1.68,1,1,1,-48.51,-44.55,-8.28,-4.88E-002,0.00,3.35,3.35,109.34,TARP,TARP,32.61,13.29,11.64,1.65,6,1,0,Yes
 Zone Information, SP-GUESTROOM103 SYS-1 FLR-1 SCH-F HPLCMT-SOUTH ZN,0.0,0.00,0.00,0.00,-50.49,-4.16,1.68,1,1,1,-52.47,-48.51,-8.28,-4.88E-002,0.00,3.35,3.35,109.34,TARP,TARP,32.61,13.29,11.64,1.65,6,1,0,Yes
 Zone Information, SP-GUESTROOM104 SYS-1 FLR-1 SCH-F HPLCMT-NORTH ZN,0.0,0.00,0.00,0.00,-50.49,-14.22,1.68,1,1,1,-52.47,-48.51,-18.34,-10.11,0.00,3.35,3.35,109.33,TARP,TARP,32.61,13.29,11.64,1.65,6,1,0,Yes
 Zone Information, SP-GUESTROOM105 SYS-1 FLR-1 SCH-F HPLCMT-NORTH ZN,0.0,0.00,0.00,0.00,-46.53,-14.22,1.68,1,1,1,-48.51,-44.55,-18.34,-10.11,0.00,3.35,3.35,109.33,TARP,TARP,32.61,13.29,11.64,1.65,6,1,0,Yes
 Zone Information, SP-GUESTROOM201 SYS-1 FLR-2 SCH-F HPLCMT-WEST ZN,0.0,0.00,0.00,0.00,-2.03,-4.16,4.72,1,1,1,-4.01,-4.87E-002,-8.28,-4.88E-002,3.35,6.10,2.74,89.46,TARP,TARP,32.61,33.45,31.80,1.65,6,1,0,Yes
 Zone Information, SP-GUESTROOM202_205 SYS-1 FLR-2 SCH-F HPLCMT-SOUTH ZN,0.0,0.00,0.00,0.00,-11.94,-4.16,4.72,1,1,1,-19.86,-4.01,-8.28,-4.88E-002,3.35,6.10,2.74,357.84,TARP,TARP,130.45,43.48,36.90,6.58,6,4,0,Yes
 Zone Information, SP-GUESTROOM206_208 SYS-1 FLR-2 SCH-F HPLCMT-SOUTH ZN,0.0,0.00,0.00,0.00,-26.26,-4.16,4.72,1,1,1,-32.66,-19.86,-8.28,-4.88E-002,3.35,6.10,2.74,289.02,TARP,TARP,105.36,35.12,28.42,6.70,8,3,0,Yes
 Zone Information, SP-GUESTROOM209_212 SYS-1 FLR-2 SCH-F HPLCMT-SOUTH ZN,0.0,0.00,0.00,0.00,-40.59,-4.16,4.72,1,1,1,-48.51,-32.66,-8.28,-4.88E-002,3.35,6.10,2.74,357.84,TARP,TARP,130.45,43.48,36.90,6.58,9,4,0,Yes
 Zone Information, SP-GUESTROOM213 SYS-1 FLR-2 SCH-F HPLCMT-SOUTH ZN,0.0,0.00,0.00,0.00,-50.49,-4.16,4.72,1,1,1,-52.47,-48.51,-8.28,-4.88E-002,3.35,6.10,2.74,89.46,TARP,TARP,32.61,10.87,9.22,1.65,6,1,0,Yes
 Zone Information, SP-GUESTROOM214 SYS-1 FLR-2 SCH-F HPLCMT-NORTH ZN,0.0,0.00,0.00,0.00,-50.49,-14.22,4.72,1,1,1,-52.47,-48.51,-18.34,-10.11,3.35,6.10,2.74,89.45,TARP,TARP,32.61,10.87,9.22,1.65,6,1,0,Yes
 Zone Information, SP-GUESTROOM215_218 SYS-1 FLR-2 SCH-F HPLCMT-NORTH ZN,0.0,0.00,0.00,0.00,-40.59,-14.22,4.72,1,1,1,-48.51,-32.66,-18.34,-10.11,3.35,6.10,2.74,357.81,TARP,TARP,130.44,43.48,36.90,6.58,8,4,0,Yes
 Zone Information, SP-GUESTROOM219 SYS-1 FLR-2 SCH-F HPLCMT-NORTH ZN,0.0,0.00,0.00,0.00,-30.68,-14.22,4.72,1,1,1,-32.66,-28.70,-18.34,-10.11,3.35,6.10,2.74,89.45,TARP,TARP,32.61,10.87,9.22,1.65,6,1,0,Yes
 Zone Information, SP-GUESTROOM220_223 SYS-1 FLR-2 SCH-F HPLCMT-NORTH ZN,0.0,0.00,0.00,0.00,-15.90,-14.22,4.72,1,1,1,-23.82,-7.97,-18.34,-10.11,3.35,6.10,2.74,357.81,TARP,TARP,130.44,43.48,36.90,6.58,7,4,0,Yes
 Zone Information, SP-GUESTROOM224 SYS-1 FLR-2 SCH-F HPLCMT-NORTH ZN,0.0,0.00,0.00,0.00,-5.99,-14.22,4.72,1,1,1,-7.97,-4.01,-18.34,-10.11,3.35,6.10,2.74,89.45,TARP,TARP,32.61,10.87,9.22,1.65,6,1,0,Yes
 Zone Information, SP-GUESTROOM301 SYS-1 FLR-3 SCH-F HPLCMT-WEST ZN,0.0,0.00,0.00,0.00,-2.03,-4.16,7.47,1,1,1,-4.01,-4.87E-002,-8.28,-4.88E-002,6.10,8.84,2.74,89.46,TARP,TARP,32.61,33.45,31.80,1.65,6,1,0,Yes
 Zone Information, SP-GUESTROOM302_305 SYS-1 FLR-3 SCH-F HPLCMT-SOUTH ZN,0.0,0.00,0.00,0.00,-11.94,-4.16,7.47,1,1,1,-19.86,-4.01,-8.28,-4.88E-002,6.10,8.84,2.74,357.84,TARP,TARP,130.45,43.48,36.90,6.58,6,4,0,Yes
 Zone Information, SP-GUESTROOM306_308 SYS-1 FLR-3 SCH-F HPLCMT-SOUTH ZN,0.0,0.00,0.00,0.00,-26.26,-4.16,7.47,1,1,1,-32.66,-19.86,-8.28,-4.88E-002,6.10,8.84,2.74,289.02,TARP,TARP,105.36,35.12,28.42,6.70,6,3,0,Yes
 Zone Information, SP-GUESTROOM309_312 SYS-1 FLR-3 SCH-F HPLCMT-SOUTH ZN,0.0,0.00,0.00,0.00,-40.59,-4.16,7.47,1,1,1,-48.51,-32.66,-8.28,-4.88E-002,6.10,8.84,2.74,357.84,TARP,TARP,130.45,43.48,36.90,6.58,6,4,0,Yes
 Zone Information, SP-GUESTROOM313 SYS-1 FLR-3 SCH-F HPLCMT-SOUTH ZN,0.0,0.00,0.00,0.00,-50.49,-4.16,7.47,1,1,1,-52.47,-48.51,-8.28,-4.88E-002,6.10,8.84,2.74,89.46,TARP,TARP,32.61,10.87,9.22,1.65,6,1,0,Yes
 Zone Information, SP-GUESTROOM314 SYS-1 FLR-3 SCH-F HPLCMT-NORTH ZN,0.0,0.00,0.00,0.00,-50.49,-14.22,7.47,1,1,1,-52.47,-48.51,-18.34,-10.11,6.10,8.84,2.74,89.45,TARP,TARP,32.61,10.87,9.22,1.65,6,1,0,Yes
 Zone Information, SP-GUESTROOM315_318 SYS-1 FLR-3 SCH-F HPLCMT-NORTH ZN,0.0,0.00,0.00,0.00,-40.59,-14.22,7.47,1,1,1,-48.51,-32.66,-18.34,-10.11,6.10,8.84,2.74,357.81,TARP,TARP,130.44,43.48,36.90,6.58,6,4,0,Yes
 Zone Information, SP-GUESTROOM319 SYS-1 FLR-3 SCH-F HPLCMT-NORTH ZN,0.0,0.00,0.00,0.00,-30.68,-14.22,7.47,1,1,1,-32.66,-28.70,-18.34,-10.11,6.10,8.84,2.74,89.45,TARP,TARP,32.61,10.87,9.22,1.65,6,1,0,Yes
 Zone Information, SP-GUESTROOM320_323 SYS-1 FLR-3 SCH-F HPLCMT-NORTH ZN,0.0,0.00,0.00,0.00,-15.90,-14.22,7.47,1,1,1,-23.82,-7.97,-18.34,-10.11,6.10,8.84,2.74,357.81,TARP,TARP,130.44,43.48,36.90,6.58,6,4,0,Yes
 Zone Information, SP-GUESTROOM324 SYS-1 FLR-3 SCH-F HPLCMT-NORTH ZN,0.0,0.00,0.00,0.00,-5.99,-14.22,7.47,1,1,1,-7.97,-4.01,-18.34,-10.11,6.10,8.84,2.74,89.45,TARP,TARP,32.61,10.87,9.22,1.65,6,1,0,Yes
 Zone Information, SP-GUESTROOM401 SYS-1 FLR-4 SCH-F HPLCMT-WEST ZN,0.0,0.00,0.00,0.00,-2.03,-4.16,10.21,1,1,1,-4.01,-4.87E-002,-8.28,-4.88E-002,8.84,11.58,2.74,89.46,TARP,TARP,32.61,33.45,31.80,1.65,6,1,0,Yes
 Zone Information, SP-GUESTROOM402_405 SYS-1 FLR-4 SCH-F HPLCMT-SOUTH ZN,0.0,0.00,0.00,0.00,-11.94,-4.16,10.21,1,1,1,-19.86,-4.01,-8.28,-4.88E-002,8.84,11.58,2.74,357.84,TARP,TARP,130.45,43.48,36.90,6.58,6,4,0,Yes
 Zone Information, SP-GUESTROOM406_408 SYS-1 FLR-4 SCH-F HPLCMT-SOUTH ZN,0.0,0.00,0.00,0.00,-26.26,-4.16,10.21,1,1,1,-32.66,-19.86,-8.28,-4.88E-002,8.84,11.58,2.74,289.02,TARP,TARP,105.36,35.12,28.42,6.70,6,3,0,Yes
 Zone Information, SP-GUESTROOM409_412 SYS-1 FLR-4 SCH-F HPLCMT-SOUTH ZN,0.0,0.00,0.00,0.00,-40.59,-4.16,10.21,1,1,1,-48.51,-32.66,-8.28,-4.88E-002,8.84,11.58,2.74,357.84,TARP,TARP,130.45,43.48,36.90,6.58,6,4,0,Yes
 Zone Information, SP-GUESTROOM413 SYS-1 FLR-4 SCH-F HPLCMT-SOUTH ZN,0.0,0.00,0.00,0.00,-50.49,-4.16,10.21,1,1,1,-52.47,-48.51,-8.28,-4.88E-002,8.84,11.58,2.74,89.46,TARP,TARP,32.61,10.87,9.22,1.65,6,1,0,Yes
 Zone Information, SP-GUESTROOM414 SYS-1 FLR-4 SCH-F HPLCMT-NORTH ZN,0.0,0.00,0.00,0.00,-50.49,-14.22,10.21,1,1,1,-52.47,-48.51,-18.34,-10.11,8.84,11.58,2.74,89.45,TARP,TARP,32.61,10.87,9.22,1.65,6,1,0,Yes
 Zone Information, SP-GUESTROOM415_418 SYS-1 FLR-4 SCH-F HPLCMT-NORTH ZN,0.0,0.00,0.00,0.00,-40.59,-14.22,10.21,1,1,1,-48.51,-32.66,-18.34,-10.11,8.84,11.58,2.74,357.81,TARP,TARP,130.44,43.48,36.90,6.58,6,4,0,Yes
 Zone Information, SP-GUESTROOM419 SYS-1 FLR-4 SCH-F HPLCMT-NORTH ZN,0.0,0.00,0.00,0.00,-30.68,-14.22,10.21,1,1,1,-32.66,-28.70,-18.34,-10.11,8.84,11.58,2.74,89.45,TARP,TARP,32.61,10.87,9.22,1.65,6,1,0,Yes
 Zone Information, SP-GUESTROOM420_423 SYS-1 FLR-4 SCH-F HPLCMT-NORTH ZN,0.0,0.00,0.00,0.00,-15.90,-14.22,10.21,1,1,1,-23.82,-7.97,-18.34,-10.11,8.84,11.58,2.74,357.81,TARP,TARP,130.44,43.48,36.90,6.58,6,4,0,Yes
 Zone Information, SP-GUESTROOM424 SYS-1 FLR-4 SCH-F HPLCMT-NORTH ZN,0.0,0.00,0.00,0.00,-5.99,-14.22,10.21,1,1,1,-7.97,-4.01,-18.34,-10.11,8.84,11.58,2.74,89.45,TARP,TARP,32.61,10.87,9.22,1.65,6,1,0,Yes
 Zone Information, SP-LAUNDRYROOMFLR1 SYS-4 FLR-1 SCH-F HPLCMT-NORTH ZN,0.0,0.00,0.00,0.00,-34.64,-14.22,1.68,1,1,1,-40.59,-28.70,-18.34,-10.11,0.00,3.35,3.35,327.99,TARP,TARP,97.83,39.86,34.92,4.94,7,3,0,Yes
 Zone Information, SP-MECHANICALROOMFLR1 SYS-3 FLR-1 SCH-F HPLCMT-SOUTH ZN,0.0,0.00,0.00,0.00,-38.61,-4.16,1.68,1,1,1,-40.59,-36.62,-8.28,-4.88E-002,0.00,3.35,3.35,109.34,TARP,TARP,32.61,13.29,13.29,0.00,6,0,0,Yes
 Zone Information, SP-MEETINGROOMFLR1 SYS-3 FLR-1 SCH-F HPLCMT-SOUTH ZN,0.0,0.00,0.00,0.00,-31.75,-4.16,1.68,1,1,1,-36.62,-26.87,-8.28,-4.88E-002,0.00,3.35,3.35,269.14,TARP,TARP,80.27,32.70,27.77,4.94,7,3,0,Yes
 Zone Information, SP-REARSTAIRSFLR1 SYS-3 FLR-1 SCH-F HPLCMT-EAST ZN,0.0,0.00,0.00,0.00,-53.69,-14.22,1.68,1,1,1,-54.91,-52.47,-18.34,-10.11,0.00,3.35,3.35,67.30,TARP,TARP,20.07,35.77,35.77,0.00,6,0,0,Yes
 Zone Information, SP-REARSTAIRSFLR2 SYS-3 FLR-2 SCH-F HPLCMT-EAST ZN,0.0,0.00,0.00,0.00,-53.69,-14.22,4.72,1,1,1,-54.91,-52.47,-18.34,-10.11,3.35,6.10,2.74,55.06,TARP,TARP,20.07,29.27,29.27,0.00,6,0,0,Yes
 Zone Information, SP-REARSTAIRSFLR3 SYS-3 FLR-3 SCH-F HPLCMT-EAST ZN,0.0,0.00,0.00,0.00,-53.69,-14.22,7.47,1,1,1,-54.91,-52.47,-18.34,-10.11,6.10,8.84,2.74,55.06,TARP,TARP,20.07,29.27,29.27,0.00,6,0,0,Yes
 Zone Information, SP-REARSTAIRSFLR4 SYS-3 FLR-4 SCH-F HPLCMT-EAST ZN,0.0,0.00,0.00,0.00,-53.69,-14.22,10.21,1,1,1,-54.91,-52.47,-18.34,-10.11,8.84,11.58,2.74,55.06,TARP,TARP,20.07,29.27,29.27,0.00,6,0,0,Yes
 Zone Information, SP-REARSTORAGEFLR1 SYS-4 FLR-1 SCH-F HPLCMT-EAST ZN,0.0,0.00,0.00,0.00,-53.69,-4.16,1.68,1,1,1,-54.91,-52.47,-8.28,-4.88E-002,0.00,3.35,3.35,67.30,TARP,TARP,20.07,35.77,35.77,0.00,6,0,0,Yes
 Zone Information, SP-REARSTORAGEFLR2 SYS-4 FLR-2 SCH-F HPLCMT-EAST ZN,0.0,0.00,0.00,0.00,-53.69,-4.16,4.72,1,1,1,-54.91,-52.47,-8.28,-4.88E-002,3.35,6.10,2.74,55.07,TARP,TARP,20.07,29.27,29.27,0.00,6,0,0,Yes
 Zone Information, SP-REARSTORAGEFLR3 SYS-4 FLR-3 SCH-F HPLCMT-EAST ZN,0.0,0.00,0.00,0.00,-53.69,-4.16,7.47,1,1,1,-54.91,-52.47,-8.28,-4.88E-002,6.10,8.84,2.74,55.07,TARP,TARP,20.07,29.27,29.27,0.00,6,0,0,Yes
 Zone Information, SP-REARSTORAGEFLR4 SYS-4 FLR-4 SCH-F HPLCMT-EAST ZN,0.0,0.00,0.00,0.00,-53.69,-4.16,10.21,1,1,1,-54.91,-52.47,-8.28,-4.88E-002,8.84,11.58,2.74,55.07,TARP,TARP,20.07,29.27,29.27,0.00,6,0,0,Yes
 Zone Information, SP-RESTROOMFLR1 SYS-3 FLR-1 SCH-F HPLCMT-SOUTH ZN,0.0,0.00,0.00,0.00,-21.84,-4.16,1.68,1,1,1,-23.82,-19.86,-8.28,-4.88E-002,0.00,3.35,3.35,109.34,TARP,TARP,32.61,13.29,13.29,0.00,6,0,0,Yes
! <Zone Internal Gains Nominal>,Zone Name, Floor Area {m2},# Occupants,Area per Occupant {m2/person},Occupant per Area {person/m2},Interior Lighting {W/m2},Electric Load {W/m2},Gas Load {W/m2},Other Load {W/m2},Hot Water Eq {W/m2},Steam Equipment {W/m2},Sum Loads per Area {W/m2},Outdoor Controlled Baseboard Heat
 Zone Internal Gains Nominal, SP-CORRIDORFLR1 SYS-3 FLR-1 SCH-F HPLCMT-NORTH ZN,150.51,1.5,99.964,1.000E-002,7.103,0.000,0.000,0.000,0.000,0.000,7.103,No
 Zone Internal Gains Nominal, SP-CORRIDORFLR2 SYS-3 FLR-2 SCH-F HPLCMT-NORTH ZN,125.42,1.3,99.964,1.000E-002,7.103,0.000,0.000,0.000,0.000,0.000,7.103,No
 Zone Internal Gains Nominal, SP-CORRIDORFLR3 SYS-3 FLR-3 SCH-F HPLCMT-NORTH ZN,125.42,1.3,99.964,1.000E-002,7.103,0.000,0.000,0.000,0.000,0.000,7.103,No
 Zone Internal Gains Nominal, SP-CORRIDORFLR4 SYS-3 FLR-4 SCH-F HPLCMT-NORTH ZN,125.42,1.3,99.964,1.000E-002,7.103,0.000,0.000,0.000,0.000,0.000,7.103,No
 Zone Internal Gains Nominal, SP-ELEVATORCOREFLR1 SYS-3 FLR-1 SCH-C HPLCMT-NORTH ZN,15.05,1.5,9.996,0.100,7.003,1.000,0.000,0.000,0.000,0.000,8.003,No
 Zone Internal Gains Nominal, SP-ELEVATORCOREFLR2 SYS-3 FLR-2 SCH-C HPLCMT-NORTH ZN,15.05,1.5,9.996,0.100,7.003,1.000,0.000,0.000,0.000,0.000,8.003,No
 Zone Internal Gains Nominal, SP-ELEVATORCOREFLR3 SYS-3 FLR-3 SCH-C HPLCMT-NORTH ZN,15.05,1.5,9.996,0.100,7.003,1.000,0.000,0.000,0.000,0.000,8.003,No
 Zone Internal Gains Nominal, SP-ELEVATORCOREFLR4 SYS-3 FLR-4 SCH-C HPLCMT-NORTH ZN,15.05,1.5,9.996,0.100,7.003,1.000,0.000,0.000,0.000,0.000,8.003,No
 Zone Internal Gains Nominal, SP-EMPLOYEELOUNGEFLR1 SYS-3 FLR-1 SCH-B HPLCMT-NORTH ZN,32.61,3.3,9.996,0.100,7.903,1.000,0.000,0.000,0.000,0.000,8.903,No
 Zone Internal Gains Nominal, SP-EXERCISECENTERFLR1 SYS-6 FLR-1 SCH-B HPLCMT-NORTH ZN,32.61,6.5,4.998,0.200,7.803,1.000,0.000,0.000,0.000,0.000,8.803,No
 Zone Internal Gains Nominal, SP-FRONTLOUNGEFLR1 SYS-3 FLR-1 SCH-H HPLCMT-SOUTH ZN,163.06,16.3,9.996,0.100,11.504,2.501,0.000,0.000,0.000,0.000,14.005,No
 Zone Internal Gains Nominal, SP-FRONTOFFICEFLR1 SYS-6 FLR-1 SCH-A HPLCMT-NORTH ZN,130.44,6.5,19.993,5.002E-002,12.004,7.503,0.000,0.000,0.000,0.000,19.507,No
 Zone Internal Gains Nominal, SP-FRONTSTAIRSFLR1 SYS-3 FLR-1 SCH-F HPLCMT-WEST ZN,20.07,0.1,199.927,5.002E-003,7.403,0.000,0.000,0.000,0.000,0.000,7.403,No
 Zone Internal Gains Nominal, SP-FRONTSTAIRSFLR2 SYS-3 FLR-2 SCH-F HPLCMT-WEST ZN,20.07,0.1,199.927,5.002E-003,7.403,0.000,0.000,0.000,0.000,0.000,7.403,No
 Zone Internal Gains Nominal, SP-FRONTSTAIRSFLR3 SYS-3 FLR-3 SCH-F HPLCMT-WEST ZN,20.07,0.1,199.927,5.002E-003,7.403,0.000,0.000,0.000,0.000,0.000,7.403,No
 Zone Internal Gains Nominal, SP-FRONTSTAIRSFLR4 SYS-3 FLR-4 SCH-F HPLCMT-WEST ZN,20.07,0.1,199.927,5.002E-003,7.403,0.000,0.000,0.000,0.000,0.000,7.403,No
 Zone Internal Gains Nominal, SP-FRONTSTORAGEFLR1 SYS-4 FLR-1 SCH-F HPLCMT-NORTH ZN,12.54,0.1,99.964,1.000E-002,6.802,0.000,0.000,0.000,0.000,0.000,6.802,No
 Zone Internal Gains Nominal, SP-FRONTSTORAGEFLR2 SYS-4 FLR-2 SCH-F HPLCMT-NORTH ZN,12.54,0.1,99.964,1.000E-002,6.802,0.000,0.000,0.000,0.000,0.000,6.802,No
 Zone Internal Gains Nominal, SP-FRONTSTORAGEFLR3 SYS-4 FLR-3 SCH-F HPLCMT-NORTH ZN,12.54,0.1,99.964,1.000E-002,6.802,0.000,0.000,0.000,0.000,0.000,6.802,No
 Zone Internal Gains Nominal, SP-FRONTSTORAGEFLR4 SYS-4 FLR-4 SCH-F HPLCMT-NORTH ZN,12.54,0.1,99.964,1.000E-002,6.802,0.000,0.000,0.000,0.000,0.000,6.802,No
 Zone Internal Gains Nominal, SP-GUESTROOM101 SYS-1 FLR-1 SCH-F HPLCMT-SOUTH ZN,32.61,1.3,24.991,4.001E-002,5.102,2.501,0.000,0.000,0.000,0.000,7.603,No
 Zone Internal Gains Nominal, SP-GUESTROOM102 SYS-1 FLR-1 SCH-F HPLCMT-SOUTH ZN,32.61,1.3,24.991,4.001E-002,5.102,2.501,0.000,0.000,0.000,0.000,7.603,No
 Zone Internal Gains Nominal, SP-GUESTROOM103 SYS-1 FLR-1 SCH-F HPLCMT-SOUTH ZN,32.61,1.3,24.991,4.001E-002,5.102,2.501,0.000,0.000,0.000,0.000,7.603,No
 Zone Internal Gains Nominal, SP-GUESTROOM104 SYS-1 FLR-1 SCH-F HPLCMT-NORTH ZN,32.61,1.3,24.991,4.001E-002,5.102,2.501,0.000,0.000,0.000,0.000,7.603,No
 Zone Internal Gains Nominal, SP-GUESTROOM105 SYS-1 FLR-1 SCH-F HPLCMT-NORTH ZN,32.61,1.3,24.991,4.001E-002,5.102,2.501,0.000,0.000,0.000,0.000,7.603,No
 Zone Internal Gains Nominal, SP-GUESTROOM201 SYS-1 FLR-2 SCH-F HPLCMT-WEST ZN,32.61,1.3,24.991,4.001E-002,5.102,2.501,0.000,0.000,0.000,0.000,7.603,No
 Zone Internal Gains Nominal, SP-GUESTROOM202_205 SYS-1 FLR-2 SCH-F HPLCMT-SOUTH ZN,130.45,5.2,24.991,4.001E-002,5.102,2.501,0.000,0.000,0.000,0.000,7.603,No
 Zone Internal Gains Nominal, SP-GUESTROOM206_208 SYS-1 FLR-2 SCH-F HPLCMT-SOUTH ZN,105.36,4.2,24.991,4.001E-002,5.102,2.501,0.000,0.000,0.000,0.000,7.603,No
 Zone Internal Gains Nominal, SP-GUESTROOM209_212 SYS-1 FLR-2 SCH-F HPLCMT-SOUTH ZN,130.45,5.2,24.991,4.001E-002,5.102,2.501,0.000,0.000,0.000,0.000,7.603,No
 Zone Internal Gains Nominal, SP-GUESTROOM213 SYS-1 FLR-2 SCH-F HPLCMT-SOUTH ZN,32.61,1.3,24.991,4.001E-002,5.102,2.501,0.000,0.000,0.000,0.000,7.603,No
 Zone Internal Gains Nominal, SP-GUESTROOM214 SYS-1 FLR-2 SCH-F HPLCMT-NORTH ZN,32.61,1.3,24.991,4.001E-002,5.102,2.501,0.000,0.000,0.000,0.000,7.603,No
 Zone Internal Gains Nominal, SP-GUESTROOM215_218 SYS-1 FLR-2 SCH-F HPLCMT-NORTH ZN,130.44,5.2,24.991,4.001E-002,5.102,2.501,0.000,0.000,0.000,0.000,7.603,No
 Zone Internal Gains Nominal, SP-GUESTROOM219 SYS-1 FLR-2 SCH-F HPLCMT-NORTH ZN,32.61,1.3,24.991,4.001E-002,5.102,2.501,0.000,0.000,0.000,0.000,7.603,No
 Zone Internal Gains Nominal, SP-GUESTROOM220_223 SYS-1 FLR-2 SCH-F HPLCMT-NORTH ZN,130.44,5.2,24.991,4.001E-002,5.102,2.501,0.000,0.000,0.000,0.000,7.603,No
 Zone Internal Gains Nominal, SP-GUESTROOM224 SYS-1 FLR-2 SCH-F HPLCMT-NORTH ZN,32.61,1.3,24.991,4.001E-002,5.102,2.501,0.000,0.000,0.000,0.000,7.603,No
 Zone Internal Gains Nominal, SP-GUESTROOM301 SYS-1 FLR-3 SCH-F HPLCMT-WEST ZN,32.61,1.3,24.991,4.001E-002,5.102,2.501,0.000,0.000,0.000,0.000,7.603,No
 Zone Internal Gains Nominal, SP-GUESTROOM302_305 SYS-1 FLR-3 SCH-F HPLCMT-SOUTH ZN,130.45,5.2,24.991,4.001E-002,5.102,2.501,0.000,0.000,0.000,0.000,7.603,No
 Zone Internal Gains Nominal, SP-GUESTROOM306_308 SYS-1 FLR-3 SCH-F HPLCMT-SOUTH ZN,105.36,4.2,24.991,4.001E-002,5.102,2.501,0.000,0.000,0.000,0.000,7.603,No
 Zone Internal Gains Nominal, SP-GUESTROOM309_312 SYS-1 FLR-3 SCH-F HPLCMT-SOUTH ZN,130.45,5.2,24.991,4.001E-002,5.102,2.501,0.000,0.000,0.000,0.000,7.603,No
 Zone Internal Gains Nominal, SP-GUESTROOM313 SYS-1 FLR-3 SCH-F HPLCMT-SOUTH ZN,32.61,1.3,24.991,4.001E-002,5.102,2.501,0.000,0.000,0.000,0.000,7.603,No
 Zone Internal Gains Nominal, SP-GUESTROOM314 SYS-1 FLR-3 SCH-F HPLCMT-NORTH ZN,32.61,1.3,24.991,4.001E-002,5.102,2.501,0.000,0.000,0.000,0.000,7.603,No
 Zone Internal Gains Nominal, SP-GUESTROOM315_318 SYS-1 FLR-3 SCH-F HPLCMT-NORTH ZN,130.44,5.2,24.991,4.001E-002,5.102,2.501,0.000,0.000,0.000,0.000,7.603,No
 Zone Internal Gains Nominal, SP-GUESTROOM319 SYS-1 FLR-3 SCH-F HPLCMT-NORTH ZN,32.61,1.3,24.991,4.001E-002,5.102,2.501,0.000,0.000,0.000,0.000,7.603,No
 Zone Internal Gains Nominal, SP-GUESTROOM320_323 SYS-1 FLR-3 SCH-F HPLCMT-NORTH ZN,130.44,5.2,24.991,4.001E-002,5.102,2.501,0.000,0.000,0.000,0.000,7.603,No
 Zone Internal Gains Nominal, SP-GUESTROOM324 SYS-1 FLR-3 SCH-F HPLCMT-NORTH ZN,32.61,1.3,24.991,4.001E-002,5.102,2.501,0.000,0.000,0.000,0.000,7.603,No
 Zone Internal Gains Nominal, SP-GUESTROOM401 SYS-1 FLR-4 SCH-F HPLCMT-WEST ZN,32.61,1.3,24.991,4.001E-002,5.102,2.501,0.000,0.000,0.000,0.000,7.603,No
 Zone Internal Gains Nominal, SP-GUESTROOM402_405 SYS-1 FLR-4 SCH-F HPLCMT-SOUTH ZN,130.45,5.2,24.991,4.001E-002,5.102,2.501,0.000,0.000,0.000,0.000,7.603,No
 Zone Internal Gains Nominal, SP-GUESTROOM406_408 SYS-1 FLR-4 SCH-F HPLCMT-SOUTH ZN,105.36,4.2,24.991,4.001E-002,5.102,2.501,0.000,0.000,0.000,0.000,7.603,No
 Zone Internal Gains Nominal, SP-GUESTROOM409_412 SYS-1 FLR-4 SCH-F HPLCMT-SOUTH ZN,130.45,5.2,24.991,4.001E-002,5.102,2.501,0.000,0.000,0.000,0.000,7.603,No
 Zone Internal Gains Nominal, SP-GUESTROOM413 SYS-1 FLR-4 SCH-F HPLCMT-SOUTH ZN,32.61,1.3,24.991,4.001E-002,5.102,2.501,0.000,0.000,0.000,0.000,7.603,No
 Zone Internal Gains Nominal, SP-GUESTROOM414 SYS-1 FLR-4 SCH-F HPLCMT-NORTH ZN,32.61,1.3,24.991,4.001E-002,5.102,2.501,0.000,0.000,0.000,0.000,7.603,No
 Zone Internal Gains Nominal, SP-GUESTROOM415_418 SYS-1 FLR-4 SCH-F HPLCMT-NORTH ZN,130.44,5.2,24.991,4.001E-002,5.102,2.501,0.000,0.000,0.000,0.000,7.603,No
 Zone Internal Gains Nominal, SP-GUESTROOM419 SYS-1 FLR-4 SCH-F HPLCMT-NORTH ZN,32.61,1.3,24.991,4.001E-002,5.102,2.501,0.000,0.000,0.000,0.000,7.603,No
 Zone Internal Gains Nominal, SP-GUESTROOM420_423 SYS-1 FLR-4 SCH-F HPLCMT-NORTH ZN,130.44,5.2,24.991,4.001E-002,5.102,2.501,0.000,0.000,0.000,0.000,7.603,No
 Zone Internal Gains Nominal, SP-GUESTROOM424 SYS-1 FLR-4 SCH-F HPLCMT-NORTH ZN,32.61,1.3,24.991,4.001E-002,5.102,2.501,0.000,0.000,0.000,0.000,7.603,No
 Zone Internal Gains Nominal, SP-LAUNDRYROOMFLR1 SYS-4 FLR-1 SCH-F HPLCMT-NORTH ZN,97.83,1.0,99.964,1.000E-002,6.802,0.000,0.000,0.000,0.000,0.000,6.802,No
 Zone Internal Gains Nominal, SP-MECHANICALROOMFLR1 SYS-3 FLR-1 SCH-F HPLCMT-SOUTH ZN,32.61,0.2,199.927,5.002E-003,4.602,1.000,0.000,0.000,0.000,0.000,5.602,No
 Zone Internal Gains Nominal, SP-MEETINGROOMFLR1 SYS-3 FLR-1 SCH-F HPLCMT-SOUTH ZN,80.27,0.4,199.927,5.002E-003,4.602,1.000,0.000,0.000,0.000,0.000,5.602,No
 Zone Internal Gains Nominal, SP-REARSTAIRSFLR1 SYS-3 FLR-1 SCH-F HPLCMT-EAST ZN,20.07,0.1,199.927,5.002E-003,7.403,0.000,0.000,0.000,0.000,0.000,7.403,No
 Zone Internal Gains Nominal, SP-REARSTAIRSFLR2 SYS-3 FLR-2 SCH-F HPLCMT-EAST ZN,20.07,0.1,199.927,5.002E-003,7.403,0.000,0.000,0.000,0.000,0.000,7.403,No
 Zone Internal Gains Nominal, SP-REARSTAIRSFLR3 SYS-3 FLR-3 SCH-F HPLCMT-EAST ZN,20.07,0.1,199.927,5.002E-003,7.403,0.000,0.000,0.000,0.000,0.000,7.403,No
 Zone Internal Gains Nominal, SP-REARSTAIRSFLR4 SYS-3 FLR-4 SCH-F HPLCMT-EAST ZN,20.07,0.1,199.927,5.002E-003,7.403,0.000,0.000,0.000,0.000,0.000,7.403,No
 Zone Internal Gains Nominal, SP-REARSTORAGEFLR1 SYS-4 FLR-1 SCH-F HPLCMT-EAST ZN,20.07,0.2,99.964,1.000E-002,6.802,0.000,0.000,0.000,0.000,0.000,6.802,No
 Zone Internal Gains Nominal, SP-REARSTORAGEFLR2 SYS-4 FLR-2 SCH-F HPLCMT-EAST ZN,20.07,0.2,99.964,1.000E-002,6.802,0.000,0.000,0.000,0.000,0.000,6.802,No
 Zone Internal Gains Nominal, SP-REARSTORAGEFLR3 SYS-4 FLR-3 SCH-F HPLCMT-EAST ZN,20.07,0.2,99.964,1.000E-002,6.802,0.000,0.000,0.000,0.000,0.000,6.802,No
 Zone Internal Gains Nominal, SP-REARSTORAGEFLR4 SYS-4 FLR-4 SCH-F HPLCMT-EAST ZN,20.07,0.2,99.964,1.000E-002,6.802,0.000,0.000,0.000,0.000,0.000,6.802,No
 Zone Internal Gains Nominal, SP-RESTROOMFLR1 SYS-3 FLR-1 SCH-F HPLCMT-SOUTH ZN,32.61,1.1,29.989,3.335E-002,10.504,1.000,0.000,0.000,0.000,0.000,11.504,No
! <People Internal Gains Nominal>,Name,Schedule Name,Zone Name,Zone Floor Area {m2},# Zone Occupants,Number of People {},People/Floor Area {person/m2},Floor Area per person {m2/person},Fraction Radiant,Fraction Convected,Sensible Fraction Calculation,Activity level,ASHRAE 55 Warnings,Carbon Dioxide Generation Rate,Nominal Minimum Number of People,Nominal Maximum Number of People
 People Internal Gains Nominal, SP-CORRIDORFLR1 SYS-3 FLR-1 SCH-F HPLCMT-NORTH ZN SPACE FUNCTION CORRIDOR/TRANSITION AREA OTHER-SCH-F PEOPLE,NECB-F-OCCUPANCY,SP-CORRIDORFLR1 SYS-3 FLR-1 SCH-F HPLCMT-NORTH ZN,150.51,1.5,1.5,1.000E-002,99.964,0.300,0.700,AutoCalculate,NECB-ACTIVITY,No,3.8200E-008,0,1
 People Internal Gains Nominal, SP-CORRIDORFLR2 SYS-3 FLR-2 SCH-F HPLCMT-NORTH ZN SPACE FUNCTION CORRIDOR/TRANSITION AREA OTHER-SCH-F PEOPLE,NECB-F-OCCUPANCY,SP-CORRIDORFLR2 SYS-3 FLR-2 SCH-F HPLCMT-NORTH ZN,125.42,1.3,1.3,1.000E-002,99.964,0.300,0.700,AutoCalculate,NECB-ACTIVITY,No,3.8200E-008,0,1
 People Internal Gains Nominal, SP-CORRIDORFLR3 SYS-3 FLR-3 SCH-F HPLCMT-NORTH ZN SPACE FUNCTION CORRIDOR/TRANSITION AREA OTHER-SCH-F PEOPLE,NECB-F-OCCUPANCY,SP-CORRIDORFLR3 SYS-3 FLR-3 SCH-F HPLCMT-NORTH ZN,125.42,1.3,1.3,1.000E-002,99.964,0.300,0.700,AutoCalculate,NECB-ACTIVITY,No,3.8200E-008,0,1
 People Internal Gains Nominal, SP-CORRIDORFLR4 SYS-3 FLR-4 SCH-F HPLCMT-NORTH ZN SPACE FUNCTION CORRIDOR/TRANSITION AREA OTHER-SCH-F PEOPLE,NECB-F-OCCUPANCY,SP-CORRIDORFLR4 SYS-3 FLR-4 SCH-F HPLCMT-NORTH ZN,125.42,1.3,1.3,1.000E-002,99.964,0.300,0.700,AutoCalculate,NECB-ACTIVITY,No,3.8200E-008,0,1
 People Internal Gains Nominal, SP-MECHANICALROOMFLR1 SYS-3 FLR-1 SCH-F HPLCMT-SOUTH ZN SPACE FUNCTION ELECTRICAL/MECHANICAL ROOM-SCH-F PEOPLE,NECB-F-OCCUPANCY,SP-MECHANICALROOMFLR1 SYS-3 FLR-1 SCH-F HPLCMT-SOUTH ZN,32.61,0.2,0.2,5.002E-003,199.927,0.300,0.700,AutoCalculate,NECB-ACTIVITY,No,3.8200E-008,2.E-002,0
 People Internal Gains Nominal, SP-MEETINGROOMFLR1 SYS-3 FLR-1 SCH-F HPLCMT-SOUTH ZN SPACE FUNCTION ELECTRICAL/MECHANICAL ROOM-SCH-F PEOPLE,NECB-F-OCCUPANCY,SP-MEETINGROOMFLR1 SYS-3 FLR-1 SCH-F HPLCMT-SOUTH ZN,80.27,0.4,0.4,5.002E-003,199.927,0.300,0.700,AutoCalculate,NECB-ACTIVITY,No,3.8200E-008,6.E-002,0
 People Internal Gains Nominal, SP-GUESTROOM101 SYS-1 FLR-1 SCH-F HPLCMT-SOUTH ZN SPACE FUNCTION GUEST ROOM PEOPLE,NECB-F-OCCUPANCY,SP-GUESTROOM101 SYS-1 FLR-1 SCH-F HPLCMT-SOUTH ZN,32.61,1.3,1.3,4.001E-002,24.991,0.300,0.700,AutoCalculate,NECB-ACTIVITY,No,3.8200E-008,0,1
 People Internal Gains Nominal, SP-GUESTROOM102 SYS-1 FLR-1 SCH-F HPLCMT-SOUTH ZN SPACE FUNCTION GUEST ROOM PEOPLE,NECB-F-OCCUPANCY,SP-GUESTROOM102 SYS-1 FLR-1 SCH-F HPLCMT-SOUTH ZN,32.61,1.3,1.3,4.001E-002,24.991,0.300,0.700,AutoCalculate,NECB-ACTIVITY,No,3.8200E-008,0,1
 People Internal Gains Nominal, SP-GUESTROOM103 SYS-1 FLR-1 SCH-F HPLCMT-SOUTH ZN SPACE FUNCTION GUEST ROOM PEOPLE,NECB-F-OCCUPANCY,SP-GUESTROOM103 SYS-1 FLR-1 SCH-F HPLCMT-SOUTH ZN,32.61,1.3,1.3,4.001E-002,24.991,0.300,0.700,AutoCalculate,NECB-ACTIVITY,No,3.8200E-008,0,1
 People Internal Gains Nominal, SP-GUESTROOM104 SYS-1 FLR-1 SCH-F HPLCMT-NORTH ZN SPACE FUNCTION GUEST ROOM PEOPLE,NECB-F-OCCUPANCY,SP-GUESTROOM104 SYS-1 FLR-1 SCH-F HPLCMT-NORTH ZN,32.61,1.3,1.3,4.001E-002,24.991,0.300,0.700,AutoCalculate,NECB-ACTIVITY,No,3.8200E-008,0,1
 People Internal Gains Nominal, SP-GUESTROOM105 SYS-1 FLR-1 SCH-F HPLCMT-NORTH ZN SPACE FUNCTION GUEST ROOM PEOPLE,NECB-F-OCCUPANCY,SP-GUESTROOM105 SYS-1 FLR-1 SCH-F HPLCMT-NORTH ZN,32.61,1.3,1.3,4.001E-002,24.991,0.300,0.700,AutoCalculate,NECB-ACTIVITY,No,3.8200E-008,0,1
 People Internal Gains Nominal, SP-GUESTROOM201 SYS-1 FLR-2 SCH-F HPLCMT-WEST ZN SPACE FUNCTION GUEST ROOM PEOPLE,NECB-F-OCCUPANCY,SP-GUESTROOM201 SYS-1 FLR-2 SCH-F HPLCMT-WEST ZN,32.61,1.3,1.3,4.001E-002,24.991,0.300,0.700,AutoCalculate,NECB-ACTIVITY,No,3.8200E-008,0,1
 People Internal Gains Nominal, SP-GUESTROOM202_205 SYS-1 FLR-2 SCH-F HPLCMT-SOUTH ZN SPACE FUNCTION GUEST ROOM PEOPLE,NECB-F-OCCUPANCY,SP-GUESTROOM202_205 SYS-1 FLR-2 SCH-F HPLCMT-SOUTH ZN,130.45,5.2,5.2,4.001E-002,24.991,0.300,0.700,AutoCalculate,NECB-ACTIVITY,No,3.8200E-008,1,3
 People Internal Gains Nominal, SP-GUESTROOM206_208 SYS-1 FLR-2 SCH-F HPLCMT-SOUTH ZN SPACE FUNCTION GUEST ROOM PEOPLE,NECB-F-OCCUPANCY,SP-GUESTROOM206_208 SYS-1 FLR-2 SCH-F HPLCMT-SOUTH ZN,105.36,4.2,4.2,4.001E-002,24.991,0.300,0.700,AutoCalculate,NECB-ACTIVITY,No,3.8200E-008,1,3
 People Internal Gains Nominal, SP-GUESTROOM209_212 SYS-1 FLR-2 SCH-F HPLCMT-SOUTH ZN SPACE FUNCTION GUEST ROOM PEOPLE,NECB-F-OCCUPANCY,SP-GUESTROOM209_212 SYS-1 FLR-2 SCH-F HPLCMT-SOUTH ZN,130.45,5.2,5.2,4.001E-002,24.991,0.300,0.700,AutoCalculate,NECB-ACTIVITY,No,3.8200E-008,1,3
 People Internal Gains Nominal, SP-GUESTROOM213 SYS-1 FLR-2 SCH-F HPLCMT-SOUTH ZN SPACE FUNCTION GUEST ROOM PEOPLE,NECB-F-OCCUPANCY,SP-GUESTROOM213 SYS-1 FLR-2 SCH-F HPLCMT-SOUTH ZN,32.61,1.3,1.3,4.001E-002,24.991,0.300,0.700,AutoCalculate,NECB-ACTIVITY,No,3.8200E-008,0,1
 People Internal Gains Nominal, SP-GUESTROOM214 SYS-1 FLR-2 SCH-F HPLCMT-NORTH ZN SPACE FUNCTION GUEST ROOM PEOPLE,NECB-F-OCCUPANCY,SP-GUESTROOM214 SYS-1 FLR-2 SCH-F HPLCMT-NORTH ZN,32.61,1.3,1.3,4.001E-002,24.991,0.300,0.700,AutoCalculate,NECB-ACTIVITY,No,3.8200E-008,0,1
 People Internal Gains Nominal, SP-GUESTROOM215_218 SYS-1 FLR-2 SCH-F HPLCMT-NORTH ZN SPACE FUNCTION GUEST ROOM PEOPLE,NECB-F-OCCUPANCY,SP-GUESTROOM215_218 SYS-1 FLR-2 SCH-F HPLCMT-NORTH ZN,130.44,5.2,5.2,4.001E-002,24.991,0.300,0.700,AutoCalculate,NECB-ACTIVITY,No,3.8200E-008,1,3
 People Internal Gains Nominal, SP-GUESTROOM219 SYS-1 FLR-2 SCH-F HPLCMT-NORTH ZN SPACE FUNCTION GUEST ROOM PEOPLE,NECB-F-OCCUPANCY,SP-GUESTROOM219 SYS-1 FLR-2 SCH-F HPLCMT-NORTH ZN,32.61,1.3,1.3,4.001E-002,24.991,0.300,0.700,AutoCalculate,NECB-ACTIVITY,No,3.8200E-008,0,1
 People Internal Gains Nominal, SP-GUESTROOM220_223 SYS-1 FLR-2 SCH-F HPLCMT-NORTH ZN SPACE FUNCTION GUEST ROOM PEOPLE,NECB-F-OCCUPANCY,SP-GUESTROOM220_223 SYS-1 FLR-2 SCH-F HPLCMT-NORTH ZN,130.44,5.2,5.2,4.001E-002,24.991,0.300,0.700,AutoCalculate,NECB-ACTIVITY,No,3.8200E-008,1,3
 People Internal Gains Nominal, SP-GUESTROOM224 SYS-1 FLR-2 SCH-F HPLCMT-NORTH ZN SPACE FUNCTION GUEST ROOM PEOPLE,NECB-F-OCCUPANCY,SP-GUESTROOM224 SYS-1 FLR-2 SCH-F HPLCMT-NORTH ZN,32.61,1.3,1.3,4.001E-002,24.991,0.300,0.700,AutoCalculate,NECB-ACTIVITY,No,3.8200E-008,0,1
 People Internal Gains Nominal, SP-GUESTROOM301 SYS-1 FLR-3 SCH-F HPLCMT-WEST ZN SPACE FUNCTION GUEST ROOM PEOPLE,NECB-F-OCCUPANCY,SP-GUESTROOM301 SYS-1 FLR-3 SCH-F HPLCMT-WEST ZN,32.61,1.3,1.3,4.001E-002,24.991,0.300,0.700,AutoCalculate,NECB-ACTIVITY,No,3.8200E-008,0,1
 People Internal Gains Nominal, SP-GUESTROOM302_305 SYS-1 FLR-3 SCH-F HPLCMT-SOUTH ZN SPACE FUNCTION GUEST ROOM PEOPLE,NECB-F-OCCUPANCY,SP-GUESTROOM302_305 SYS-1 FLR-3 SCH-F HPLCMT-SOUTH ZN,130.45,5.2,5.2,4.001E-002,24.991,0.300,0.700,AutoCalculate,NECB-ACTIVITY,No,3.8200E-008,1,3
 People Internal Gains Nominal, SP-GUESTROOM306_308 SYS-1 FLR-3 SCH-F HPLCMT-SOUTH ZN SPACE FUNCTION GUEST ROOM PEOPLE,NECB-F-OCCUPANCY,SP-GUESTROOM306_308 SYS-1 FLR-3 SCH-F HPLCMT-SOUTH ZN,105.36,4.2,4.2,4.001E-002,24.991,0.300,0.700,AutoCalculate,NECB-ACTIVITY,No,3.8200E-008,1,3
 People Internal Gains Nominal, SP-GUESTROOM309_312 SYS-1 FLR-3 SCH-F HPLCMT-SOUTH ZN SPACE FUNCTION GUEST ROOM PEOPLE,NECB-F-OCCUPANCY,SP-GUESTROOM309_312 SYS-1 FLR-3 SCH-F HPLCMT-SOUTH ZN,130.45,5.2,5.2,4.001E-002,24.991,0.300,0.700,AutoCalculate,NECB-ACTIVITY,No,3.8200E-008,1,3
 People Internal Gains Nominal, SP-GUESTROOM313 SYS-1 FLR-3 SCH-F HPLCMT-SOUTH ZN SPACE FUNCTION GUEST ROOM PEOPLE,NECB-F-OCCUPANCY,SP-GUESTROOM313 SYS-1 FLR-3 SCH-F HPLCMT-SOUTH ZN,32.61,1.3,1.3,4.001E-002,24.991,0.300,0.700,AutoCalculate,NECB-ACTIVITY,No,3.8200E-008,0,1
 People Internal Gains Nominal, SP-GUESTROOM314 SYS-1 FLR-3 SCH-F HPLCMT-NORTH ZN SPACE FUNCTION GUEST ROOM PEOPLE,NECB-F-OCCUPANCY,SP-GUESTROOM314 SYS-1 FLR-3 SCH-F HPLCMT-NORTH ZN,32.61,1.3,1.3,4.001E-002,24.991,0.300,0.700,AutoCalculate,NECB-ACTIVITY,No,3.8200E-008,0,1
 People Internal Gains Nominal, SP-GUESTROOM315_318 SYS-1 FLR-3 SCH-F HPLCMT-NORTH ZN SPACE FUNCTION GUEST ROOM PEOPLE,NECB-F-OCCUPANCY,SP-GUESTROOM315_318 SYS-1 FLR-3 SCH-F HPLCMT-NORTH ZN,130.44,5.2,5.2,4.001E-002,24.991,0.300,0.700,AutoCalculate,NECB-ACTIVITY,No,3.8200E-008,1,3
 People Internal Gains Nominal, SP-GUESTROOM319 SYS-1 FLR-3 SCH-F HPLCMT-NORTH ZN SPACE FUNCTION GUEST ROOM PEOPLE,NECB-F-OCCUPANCY,SP-GUESTROOM319 SYS-1 FLR-3 SCH-F HPLCMT-NORTH ZN,32.61,1.3,1.3,4.001E-002,24.991,0.300,0.700,AutoCalculate,NECB-ACTIVITY,No,3.8200E-008,0,1
 People Internal Gains Nominal, SP-GUESTROOM320_323 SYS-1 FLR-3 SCH-F HPLCMT-NORTH ZN SPACE FUNCTION GUEST ROOM PEOPLE,NECB-F-OCCUPANCY,SP-GUESTROOM320_323 SYS-1 FLR-3 SCH-F HPLCMT-NORTH ZN,130.44,5.2,5.2,4.001E-002,24.991,0.300,0.700,AutoCalculate,NECB-ACTIVITY,No,3.8200E-008,1,3
 People Internal Gains Nominal, SP-GUESTROOM324 SYS-1 FLR-3 SCH-F HPLCMT-NORTH ZN SPACE FUNCTION GUEST ROOM PEOPLE,NECB-F-OCCUPANCY,SP-GUESTROOM324 SYS-1 FLR-3 SCH-F HPLCMT-NORTH ZN,32.61,1.3,1.3,4.001E-002,24.991,0.300,0.700,AutoCalculate,NECB-ACTIVITY,No,3.8200E-008,0,1
 People Internal Gains Nominal, SP-GUESTROOM401 SYS-1 FLR-4 SCH-F HPLCMT-WEST ZN SPACE FUNCTION GUEST ROOM PEOPLE,NECB-F-OCCUPANCY,SP-GUESTROOM401 SYS-1 FLR-4 SCH-F HPLCMT-WEST ZN,32.61,1.3,1.3,4.001E-002,24.991,0.300,0.700,AutoCalculate,NECB-ACTIVITY,No,3.8200E-008,0,1
 People Internal Gains Nominal, SP-GUESTROOM402_405 SYS-1 FLR-4 SCH-F HPLCMT-SOUTH ZN SPACE FUNCTION GUEST ROOM PEOPLE,NECB-F-OCCUPANCY,SP-GUESTROOM402_405 SYS-1 FLR-4 SCH-F HPLCMT-SOUTH ZN,130.45,5.2,5.2,4.001E-002,24.991,0.300,0.700,AutoCalculate,NECB-ACTIVITY,No,3.8200E-008,1,3
 People Internal Gains Nominal, SP-GUESTROOM406_408 SYS-1 FLR-4 SCH-F HPLCMT-SOUTH ZN SPACE FUNCTION GUEST ROOM PEOPLE,NECB-F-OCCUPANCY,SP-GUESTROOM406_408 SYS-1 FLR-4 SCH-F HPLCMT-SOUTH ZN,105.36,4.2,4.2,4.001E-002,24.991,0.300,0.700,AutoCalculate,NECB-ACTIVITY,No,3.8200E-008,1,3
 People Internal Gains Nominal, SP-GUESTROOM409_412 SYS-1 FLR-4 SCH-F HPLCMT-SOUTH ZN SPACE FUNCTION GUEST ROOM PEOPLE,NECB-F-OCCUPANCY,SP-GUESTROOM409_412 SYS-1 FLR-4 SCH-F HPLCMT-SOUTH ZN,130.45,5.2,5.2,4.001E-002,24.991,0.300,0.700,AutoCalculate,NECB-ACTIVITY,No,3.8200E-008,1,3
 People Internal Gains Nominal, SP-GUESTROOM413 SYS-1 FLR-4 SCH-F HPLCMT-SOUTH ZN SPACE FUNCTION GUEST ROOM PEOPLE,NECB-F-OCCUPANCY,SP-GUESTROOM413 SYS-1 FLR-4 SCH-F HPLCMT-SOUTH ZN,32.61,1.3,1.3,4.001E-002,24.991,0.300,0.700,AutoCalculate,NECB-ACTIVITY,No,3.8200E-008,0,1
 People Internal Gains Nominal, SP-GUESTROOM414 SYS-1 FLR-4 SCH-F HPLCMT-NORTH ZN SPACE FUNCTION GUEST ROOM PEOPLE,NECB-F-OCCUPANCY,SP-GUESTROOM414 SYS-1 FLR-4 SCH-F HPLCMT-NORTH ZN,32.61,1.3,1.3,4.001E-002,24.991,0.300,0.700,AutoCalculate,NECB-ACTIVITY,No,3.8200E-008,0,1
 People Internal Gains Nominal, SP-GUESTROOM415_418 SYS-1 FLR-4 SCH-F HPLCMT-NORTH ZN SPACE FUNCTION GUEST ROOM PEOPLE,NECB-F-OCCUPANCY,SP-GUESTROOM415_418 SYS-1 FLR-4 SCH-F HPLCMT-NORTH ZN,130.44,5.2,5.2,4.001E-002,24.991,0.300,0.700,AutoCalculate,NECB-ACTIVITY,No,3.8200E-008,1,3
 People Internal Gains Nominal, SP-GUESTROOM419 SYS-1 FLR-4 SCH-F HPLCMT-NORTH ZN SPACE FUNCTION GUEST ROOM PEOPLE,NECB-F-OCCUPANCY,SP-GUESTROOM419 SYS-1 FLR-4 SCH-F HPLCMT-NORTH ZN,32.61,1.3,1.3,4.001E-002,24.991,0.300,0.700,AutoCalculate,NECB-ACTIVITY,No,3.8200E-008,0,1
 People Internal Gains Nominal, SP-GUESTROOM420_423 SYS-1 FLR-4 SCH-F HPLCMT-NORTH ZN SPACE FUNCTION GUEST ROOM PEOPLE,NECB-F-OCCUPANCY,SP-GUESTROOM420_423 SYS-1 FLR-4 SCH-F HPLCMT-NORTH ZN,130.44,5.2,5.2,4.001E-002,24.991,0.300,0.700,AutoCalculate,NECB-ACTIVITY,No,3.8200E-008,1,3
 People Internal Gains Nominal, SP-GUESTROOM424 SYS-1 FLR-4 SCH-F HPLCMT-NORTH ZN SPACE FUNCTION GUEST ROOM PEOPLE,NECB-F-OCCUPANCY,SP-GUESTROOM424 SYS-1 FLR-4 SCH-F HPLCMT-NORTH ZN,32.61,1.3,1.3,4.001E-002,24.991,0.300,0.700,AutoCalculate,NECB-ACTIVITY,No,3.8200E-008,0,1
 People Internal Gains Nominal, SP-EXERCISECENTERFLR1 SYS-6 FLR-1 SCH-B HPLCMT-NORTH ZN SPACE FUNCTION GYMNASIUM/FITNESS CENTRE EXERCISE AREA PEOPLE,NECB-B-OCCUPANCY,SP-EXERCISECENTERFLR1 SYS-6 FLR-1 SCH-B HPLCMT-NORTH ZN,32.61,6.5,6.5,0.200,4.998,0.300,0.700,AutoCalculate,NECB-ACTIVITY,No,3.8200E-008,0,6
 People Internal Gains Nominal, SP-ELEVATORCOREFLR1 SYS-3 FLR-1 SCH-C HPLCMT-NORTH ZN SPACE FUNCTION LOBBY - ELEVATOR PEOPLE,NECB-C-OCCUPANCY,SP-ELEVATORCOREFLR1 SYS-3 FLR-1 SCH-C HPLCMT-NORTH ZN,15.05,1.5,1.5,0.100,9.996,0.300,0.700,AutoCalculate,NECB-ACTIVITY,No,3.8200E-008,0,1
 People Internal Gains Nominal, SP-ELEVATORCOREFLR2 SYS-3 FLR-2 SCH-C HPLCMT-NORTH ZN SPACE FUNCTION LOBBY - ELEVATOR PEOPLE,NECB-C-OCCUPANCY,SP-ELEVATORCOREFLR2 SYS-3 FLR-2 SCH-C HPLCMT-NORTH ZN,15.05,1.5,1.5,0.100,9.996,0.300,0.700,AutoCalculate,NECB-ACTIVITY,No,3.8200E-008,0,1
 People Internal Gains Nominal, SP-ELEVATORCOREFLR3 SYS-3 FLR-3 SCH-C HPLCMT-NORTH ZN SPACE FUNCTION LOBBY - ELEVATOR PEOPLE,NECB-C-OCCUPANCY,SP-ELEVATORCOREFLR3 SYS-3 FLR-3 SCH-C HPLCMT-NORTH ZN,15.05,1.5,1.5,0.100,9.996,0.300,0.700,AutoCalculate,NECB-ACTIVITY,No,3.8200E-008,0,1
 People Internal Gains Nominal, SP-ELEVATORCOREFLR4 SYS-3 FLR-4 SCH-C HPLCMT-NORTH ZN SPACE FUNCTION LOBBY - ELEVATOR PEOPLE,NECB-C-OCCUPANCY,SP-ELEVATORCOREFLR4 SYS-3 FLR-4 SCH-C HPLCMT-NORTH ZN,15.05,1.5,1.5,0.100,9.996,0.300,0.700,AutoCalculate,NECB-ACTIVITY,No,3.8200E-008,0,1
 People Internal Gains Nominal, SP-FRONTLOUNGEFLR1 SYS-3 FLR-1 SCH-H HPLCMT-SOUTH ZN SPACE FUNCTION LOBBY - HOTEL PEOPLE,NECB-H-OCCUPANCY,SP-FRONTLOUNGEFLR1 SYS-3 FLR-1 SCH-H HPLCMT-SOUTH ZN,163.06,16.3,16.3,0.100,9.996,0.300,0.700,AutoCalculate,NECB-ACTIVITY,No,3.8200E-008,15,15
 People Internal Gains Nominal, SP-EMPLOYEELOUNGEFLR1 SYS-3 FLR-1 SCH-B HPLCMT-NORTH ZN SPACE FUNCTION LOUNGE/BREAK ROOM - OTHER PEOPLE,NECB-B-OCCUPANCY,SP-EMPLOYEELOUNGEFLR1 SYS-3 FLR-1 SCH-B HPLCMT-NORTH ZN,32.61,3.3,3.3,0.100,9.996,0.300,0.700,AutoCalculate,NECB-ACTIVITY,No,3.8200E-008,0,3
 People Internal Gains Nominal, SP-FRONTOFFICEFLR1 SYS-6 FLR-1 SCH-A HPLCMT-NORTH ZN SPACE FUNCTION OFFICE ENCLOSED > 25 M2 PEOPLE,NECB-A-OCCUPANCY,SP-FRONTOFFICEFLR1 SYS-6 FLR-1 SCH-A HPLCMT-NORTH ZN,130.44,6.5,6.5,5.002E-002,19.993,0.300,0.700,AutoCalculate,NECB-ACTIVITY,No,3.8200E-008,0,6
 People Internal Gains Nominal, SP-FRONTSTAIRSFLR1 SYS-3 FLR-1 SCH-F HPLCMT-WEST ZN SPACE FUNCTION STAIRWAY/STAIRWELL-SCH-F PEOPLE,NECB-F-OCCUPANCY,SP-FRONTSTAIRSFLR1 SYS-3 FLR-1 SCH-F HPLCMT-WEST ZN,20.07,0.1,0.1,5.002E-003,199.927,0.300,0.700,AutoCalculate,NECB-ACTIVITY,No,3.8200E-008,1.E-002,6.E-002
 People Internal Gains Nominal, SP-FRONTSTAIRSFLR2 SYS-3 FLR-2 SCH-F HPLCMT-WEST ZN SPACE FUNCTION STAIRWAY/STAIRWELL-SCH-F PEOPLE,NECB-F-OCCUPANCY,SP-FRONTSTAIRSFLR2 SYS-3 FLR-2 SCH-F HPLCMT-WEST ZN,20.07,0.1,0.1,5.002E-003,199.927,0.300,0.700,AutoCalculate,NECB-ACTIVITY,No,3.8200E-008,1.E-002,6.E-002
 People Internal Gains Nominal, SP-FRONTSTAIRSFLR3 SYS-3 FLR-3 SCH-F HPLCMT-WEST ZN SPACE FUNCTION STAIRWAY/STAIRWELL-SCH-F PEOPLE,NECB-F-OCCUPANCY,SP-FRONTSTAIRSFLR3 SYS-3 FLR-3 SCH-F HPLCMT-WEST ZN,20.07,0.1,0.1,5.002E-003,199.927,0.300,0.700,AutoCalculate,NECB-ACTIVITY,No,3.8200E-008,1.E-002,6.E-002
 People Internal Gains Nominal, SP-FRONTSTAIRSFLR4 SYS-3 FLR-4 SCH-F HPLCMT-WEST ZN SPACE FUNCTION STAIRWAY/STAIRWELL-SCH-F PEOPLE,NECB-F-OCCUPANCY,SP-FRONTSTAIRSFLR4 SYS-3 FLR-4 SCH-F HPLCMT-WEST ZN,20.07,0.1,0.1,5.002E-003,199.927,0.300,0.700,AutoCalculate,NECB-ACTIVITY,No,3.8200E-008,1.E-002,6.E-002
 People Internal Gains Nominal, SP-REARSTAIRSFLR1 SYS-3 FLR-1 SCH-F HPLCMT-EAST ZN SPACE FUNCTION STAIRWAY/STAIRWELL-SCH-F PEOPLE,NECB-F-OCCUPANCY,SP-REARSTAIRSFLR1 SYS-3 FLR-1 SCH-F HPLCMT-EAST ZN,20.07,0.1,0.1,5.002E-003,199.927,0.300,0.700,AutoCalculate,NECB-ACTIVITY,No,3.8200E-008,1.E-002,6.E-002
 People Internal Gains Nominal, SP-REARSTAIRSFLR2 SYS-3 FLR-2 SCH-F HPLCMT-EAST ZN SPACE FUNCTION STAIRWAY/STAIRWELL-SCH-F PEOPLE,NECB-F-OCCUPANCY,SP-REARSTAIRSFLR2 SYS-3 FLR-2 SCH-F HPLCMT-EAST ZN,20.07,0.1,0.1,5.002E-003,199.927,0.300,0.700,AutoCalculate,NECB-ACTIVITY,No,3.8200E-008,1.E-002,6.E-002
 People Internal Gains Nominal, SP-REARSTAIRSFLR3 SYS-3 FLR-3 SCH-F HPLCMT-EAST ZN SPACE FUNCTION STAIRWAY/STAIRWELL-SCH-F PEOPLE,NECB-F-OCCUPANCY,SP-REARSTAIRSFLR3 SYS-3 FLR-3 SCH-F HPLCMT-EAST ZN,20.07,0.1,0.1,5.002E-003,199.927,0.300,0.700,AutoCalculate,NECB-ACTIVITY,No,3.8200E-008,1.E-002,6.E-002
 People Internal Gains Nominal, SP-REARSTAIRSFLR4 SYS-3 FLR-4 SCH-F HPLCMT-EAST ZN SPACE FUNCTION STAIRWAY/STAIRWELL-SCH-F PEOPLE,NECB-F-OCCUPANCY,SP-REARSTAIRSFLR4 SYS-3 FLR-4 SCH-F HPLCMT-EAST ZN,20.07,0.1,0.1,5.002E-003,199.927,0.300,0.700,AutoCalculate,NECB-ACTIVITY,No,3.8200E-008,1.E-002,6.E-002
 People Internal Gains Nominal, SP-FRONTSTORAGEFLR1 SYS-4 FLR-1 SCH-F HPLCMT-NORTH ZN SPACE FUNCTION STORAGE ROOM <= 5 M2 <= 100 M2-SCH-F PEOPLE,NECB-F-OCCUPANCY,SP-FRONTSTORAGEFLR1 SYS-4 FLR-1 SCH-F HPLCMT-NORTH ZN,12.54,0.1,0.1,1.000E-002,99.964,0.300,0.700,AutoCalculate,NECB-ACTIVITY,No,3.8200E-008,2.E-002,8.E-002
 People Internal Gains Nominal, SP-FRONTSTORAGEFLR2 SYS-4 FLR-2 SCH-F HPLCMT-NORTH ZN SPACE FUNCTION STORAGE ROOM <= 5 M2 <= 100 M2-SCH-F PEOPLE,NECB-F-OCCUPANCY,SP-FRONTSTORAGEFLR2 SYS-4 FLR-2 SCH-F HPLCMT-NORTH ZN,12.54,0.1,0.1,1.000E-002,99.964,0.300,0.700,AutoCalculate,NECB-ACTIVITY,No,3.8200E-008,2.E-002,8.E-002
 People Internal Gains Nominal, SP-FRONTSTORAGEFLR3 SYS-4 FLR-3 SCH-F HPLCMT-NORTH ZN SPACE FUNCTION STORAGE ROOM <= 5 M2 <= 100 M2-SCH-F PEOPLE,NECB-F-OCCUPANCY,SP-FRONTSTORAGEFLR3 SYS-4 FLR-3 SCH-F HPLCMT-NORTH ZN,12.54,0.1,0.1,1.000E-002,99.964,0.300,0.700,AutoCalculate,NECB-ACTIVITY,No,3.8200E-008,2.E-002,8.E-002
 People Internal Gains Nominal, SP-FRONTSTORAGEFLR4 SYS-4 FLR-4 SCH-F HPLCMT-NORTH ZN SPACE FUNCTION STORAGE ROOM <= 5 M2 <= 100 M2-SCH-F PEOPLE,NECB-F-OCCUPANCY,SP-FRONTSTORAGEFLR4 SYS-4 FLR-4 SCH-F HPLCMT-NORTH ZN,12.54,0.1,0.1,1.000E-002,99.964,0.300,0.700,AutoCalculate,NECB-ACTIVITY,No,3.8200E-008,2.E-002,8.E-002
 People Internal Gains Nominal, SP-LAUNDRYROOMFLR1 SYS-4 FLR-1 SCH-F HPLCMT-NORTH ZN SPACE FUNCTION STORAGE ROOM <= 5 M2 <= 100 M2-SCH-F PEOPLE,NECB-F-OCCUPANCY,SP-LAUNDRYROOMFLR1 SYS-4 FLR-1 SCH-F HPLCMT-NORTH ZN,97.83,1.0,1.0,1.000E-002,99.964,0.300,0.700,AutoCalculate,NECB-ACTIVITY,No,3.8200E-008,0,1
 People Internal Gains Nominal, SP-REARSTORAGEFLR1 SYS-4 FLR-1 SCH-F HPLCMT-EAST ZN SPACE FUNCTION STORAGE ROOM <= 5 M2 <= 100 M2-SCH-F PEOPLE,NECB-F-OCCUPANCY,SP-REARSTORAGEFLR1 SYS-4 FLR-1 SCH-F HPLCMT-EAST ZN,20.07,0.2,0.2,1.000E-002,99.964,0.300,0.700,AutoCalculate,NECB-ACTIVITY,No,3.8200E-008,3.E-002,0
 People Internal Gains Nominal, SP-REARSTORAGEFLR2 SYS-4 FLR-2 SCH-F HPLCMT-EAST ZN SPACE FUNCTION STORAGE ROOM <= 5 M2 <= 100 M2-SCH-F PEOPLE,NECB-F-OCCUPANCY,SP-REARSTORAGEFLR2 SYS-4 FLR-2 SCH-F HPLCMT-EAST ZN,20.07,0.2,0.2,1.000E-002,99.964,0.300,0.700,AutoCalculate,NECB-ACTIVITY,No,3.8200E-008,3.E-002,0
 People Internal Gains Nominal, SP-REARSTORAGEFLR3 SYS-4 FLR-3 SCH-F HPLCMT-EAST ZN SPACE FUNCTION STORAGE ROOM <= 5 M2 <= 100 M2-SCH-F PEOPLE,NECB-F-OCCUPANCY,SP-REARSTORAGEFLR3 SYS-4 FLR-3 SCH-F HPLCMT-EAST ZN,20.07,0.2,0.2,1.000E-002,99.964,0.300,0.700,AutoCalculate,NECB-ACTIVITY,No,3.8200E-008,3.E-002,0
 People Internal Gains Nominal, SP-REARSTORAGEFLR4 SYS-4 FLR-4 SCH-F HPLCMT-EAST ZN SPACE FUNCTION STORAGE ROOM <= 5 M2 <= 100 M2-SCH-F PEOPLE,NECB-F-OCCUPANCY,SP-REARSTORAGEFLR4 SYS-4 FLR-4 SCH-F HPLCMT-EAST ZN,20.07,0.2,0.2,1.000E-002,99.964,0.300,0.700,AutoCalculate,NECB-ACTIVITY,No,3.8200E-008,3.E-002,0
 People Internal Gains Nominal, SP-RESTROOMFLR1 SYS-3 FLR-1 SCH-F HPLCMT-SOUTH ZN SPACE FUNCTION WASHROOM - OTHER-SCH-F PEOPLE,NECB-F-OCCUPANCY,SP-RESTROOMFLR1 SYS-3 FLR-1 SCH-F HPLCMT-SOUTH ZN,32.61,1.1,1.1,3.335E-002,29.989,0.300,0.700,AutoCalculate,NECB-ACTIVITY,No,3.8200E-008,0,1
! <Lights Internal Gains Nominal>,Name,Schedule Name,Zone Name,Zone Floor Area {m2},# Zone Occupants,Lighting Level {W},Lights/Floor Area {W/m2},Lights per person {W/person},Fraction Return Air,Fraction Radiant,Fraction Short Wave,Fraction Convected,Fraction Replaceable,End-Use Category,Nominal Minimum Lighting Level {W},Nominal Maximum Lighting Level {W}
 Lights Internal Gains Nominal, SP-CORRIDORFLR1 SYS-3 FLR-1 SCH-F HPLCMT-NORTH ZN SPACE FUNCTION CORRIDOR/TRANSITION AREA OTHER-SCH-F LIGHTS,NECB-F-LIGHTING,SP-CORRIDORFLR1 SYS-3 FLR-1 SCH-F HPLCMT-NORTH ZN,150.51,1.5,1068.979,7.103,710.000,0.000,0.500,0.200,0.300,1.000,General,74.829,673.457
 Lights Internal Gains Nominal, SP-CORRIDORFLR2 SYS-3 FLR-2 SCH-F HPLCMT-NORTH ZN SPACE FUNCTION CORRIDOR/TRANSITION AREA OTHER-SCH-F LIGHTS,NECB-F-LIGHTING,SP-CORRIDORFLR2 SYS-3 FLR-2 SCH-F HPLCMT-NORTH ZN,125.42,1.3,890.807,7.103,710.000,0.000,0.500,0.200,0.300,1.000,General,62.356,561.208
 Lights Internal Gains Nominal, SP-CORRIDORFLR3 SYS-3 FLR-3 SCH-F HPLCMT-NORTH ZN SPACE FUNCTION CORRIDOR/TRANSITION AREA OTHER-SCH-F LIGHTS,NECB-F-LIGHTING,SP-CORRIDORFLR3 SYS-3 FLR-3 SCH-F HPLCMT-NORTH ZN,125.42,1.3,890.807,7.103,710.000,0.000,0.500,0.200,0.300,1.000,General,62.356,561.208
 Lights Internal Gains Nominal, SP-CORRIDORFLR4 SYS-3 FLR-4 SCH-F HPLCMT-NORTH ZN SPACE FUNCTION CORRIDOR/TRANSITION AREA OTHER-SCH-F LIGHTS,NECB-F-LIGHTING,SP-CORRIDORFLR4 SYS-3 FLR-4 SCH-F HPLCMT-NORTH ZN,125.42,1.3,890.807,7.103,710.000,0.000,0.500,0.200,0.300,1.000,General,62.356,561.208
 Lights Internal Gains Nominal, SP-MECHANICALROOMFLR1 SYS-3 FLR-1 SCH-F HPLCMT-SOUTH ZN SPACE FUNCTION ELECTRICAL/MECHANICAL ROOM-SCH-F LIGHTS,NECB-F-LIGHTING,SP-MECHANICALROOMFLR1 SYS-3 FLR-1 SCH-F HPLCMT-SOUTH ZN,32.61,0.2,150.066,4.602,920.000,0.000,0.500,0.200,0.300,1.000,General,10.505,94.542
 Lights Internal Gains Nominal, SP-MEETINGROOMFLR1 SYS-3 FLR-1 SCH-F HPLCMT-SOUTH ZN SPACE FUNCTION ELECTRICAL/MECHANICAL ROOM-SCH-F LIGHTS,NECB-F-LIGHTING,SP-MEETINGROOMFLR1 SYS-3 FLR-1 SCH-F HPLCMT-SOUTH ZN,80.27,0.4,369.394,4.602,920.000,0.000,0.500,0.200,0.300,1.000,General,25.858,232.718
 Lights Internal Gains Nominal, SP-GUESTROOM101 SYS-1 FLR-1 SCH-F HPLCMT-SOUTH ZN SPACE FUNCTION GUEST ROOM LIGHTS,NECB-F-LIGHTING,SP-GUESTROOM101 SYS-1 FLR-1 SCH-F HPLCMT-SOUTH ZN,32.61,1.3,166.378,5.102,127.500,0.000,0.500,0.200,0.300,1.000,General,11.646,104.818
 Lights Internal Gains Nominal, SP-GUESTROOM102 SYS-1 FLR-1 SCH-F HPLCMT-SOUTH ZN SPACE FUNCTION GUEST ROOM LIGHTS,NECB-F-LIGHTING,SP-GUESTROOM102 SYS-1 FLR-1 SCH-F HPLCMT-SOUTH ZN,32.61,1.3,166.378,5.102,127.500,0.000,0.500,0.200,0.300,1.000,General,11.646,104.818
 Lights Internal Gains Nominal, SP-GUESTROOM103 SYS-1 FLR-1 SCH-F HPLCMT-SOUTH ZN SPACE FUNCTION GUEST ROOM LIGHTS,NECB-F-LIGHTING,SP-GUESTROOM103 SYS-1 FLR-1 SCH-F HPLCMT-SOUTH ZN,32.61,1.3,166.378,5.102,127.500,0.000,0.500,0.200,0.300,1.000,General,11.646,104.818
 Lights Internal Gains Nominal, SP-GUESTROOM104 SYS-1 FLR-1 SCH-F HPLCMT-NORTH ZN SPACE FUNCTION GUEST ROOM LIGHTS,NECB-F-LIGHTING,SP-GUESTROOM104 SYS-1 FLR-1 SCH-F HPLCMT-NORTH ZN,32.61,1.3,166.366,5.102,127.500,0.000,0.500,0.200,0.300,1.000,General,11.646,104.811
 Lights Internal Gains Nominal, SP-GUESTROOM105 SYS-1 FLR-1 SCH-F HPLCMT-NORTH ZN SPACE FUNCTION GUEST ROOM LIGHTS,NECB-F-LIGHTING,SP-GUESTROOM105 SYS-1 FLR-1 SCH-F HPLCMT-NORTH ZN,32.61,1.3,166.366,5.102,127.500,0.000,0.500,0.200,0.300,1.000,General,11.646,104.811
 Lights Internal Gains Nominal, SP-GUESTROOM201 SYS-1 FLR-2 SCH-F HPLCMT-WEST ZN SPACE FUNCTION GUEST ROOM LIGHTS,NECB-F-LIGHTING,SP-GUESTROOM201 SYS-1 FLR-2 SCH-F HPLCMT-WEST ZN,32.61,1.3,166.378,5.102,127.500,0.000,0.500,0.200,0.300,1.000,General,11.646,104.818
 Lights Internal Gains Nominal, SP-GUESTROOM202_205 SYS-1 FLR-2 SCH-F HPLCMT-SOUTH ZN SPACE FUNCTION GUEST ROOM LIGHTS,NECB-F-LIGHTING,SP-GUESTROOM202_205 SYS-1 FLR-2 SCH-F HPLCMT-SOUTH ZN,130.45,5.2,665.512,5.102,127.500,0.000,0.500,0.200,0.300,1.000,General,46.586,419.273
 Lights Internal Gains Nominal, SP-GUESTROOM206_208 SYS-1 FLR-2 SCH-F HPLCMT-SOUTH ZN SPACE FUNCTION GUEST ROOM LIGHTS,NECB-F-LIGHTING,SP-GUESTROOM206_208 SYS-1 FLR-2 SCH-F HPLCMT-SOUTH ZN,105.36,4.2,537.529,5.102,127.500,0.000,0.500,0.200,0.300,1.000,General,37.627,338.643
 Lights Internal Gains Nominal, SP-GUESTROOM209_212 SYS-1 FLR-2 SCH-F HPLCMT-SOUTH ZN SPACE FUNCTION GUEST ROOM LIGHTS,NECB-F-LIGHTING,SP-GUESTROOM209_212 SYS-1 FLR-2 SCH-F HPLCMT-SOUTH ZN,130.45,5.2,665.512,5.102,127.500,0.000,0.500,0.200,0.300,1.000,General,46.586,419.273
 Lights Internal Gains Nominal, SP-GUESTROOM213 SYS-1 FLR-2 SCH-F HPLCMT-SOUTH ZN SPACE FUNCTION GUEST ROOM LIGHTS,NECB-F-LIGHTING,SP-GUESTROOM213 SYS-1 FLR-2 SCH-F HPLCMT-SOUTH ZN,32.61,1.3,166.378,5.102,127.500,0.000,0.500,0.200,0.300,1.000,General,11.646,104.818
 Lights Internal Gains Nominal, SP-GUESTROOM214 SYS-1 FLR-2 SCH-F HPLCMT-NORTH ZN SPACE FUNCTION GUEST ROOM LIGHTS,NECB-F-LIGHTING,SP-GUESTROOM214 SYS-1 FLR-2 SCH-F HPLCMT-NORTH ZN,32.61,1.3,166.366,5.102,127.500,0.000,0.500,0.200,0.300,1.000,General,11.646,104.811
 Lights Internal Gains Nominal, SP-GUESTROOM215_218 SYS-1 FLR-2 SCH-F HPLCMT-NORTH ZN SPACE FUNCTION GUEST ROOM LIGHTS,NECB-F-LIGHTING,SP-GUESTROOM215_218 SYS-1 FLR-2 SCH-F HPLCMT-NORTH ZN,130.44,5.2,665.465,5.102,127.500,0.000,0.500,0.200,0.300,1.000,General,46.583,419.243
 Lights Internal Gains Nominal, SP-GUESTROOM219 SYS-1 FLR-2 SCH-F HPLCMT-NORTH ZN SPACE FUNCTION GUEST ROOM LIGHTS,NECB-F-LIGHTING,SP-GUESTROOM219 SYS-1 FLR-2 SCH-F HPLCMT-NORTH ZN,32.61,1.3,166.366,5.102,127.500,0.000,0.500,0.200,0.300,1.000,General,11.646,104.811
 Lights Internal Gains Nominal, SP-GUESTROOM220_223 SYS-1 FLR-2 SCH-F HPLCMT-NORTH ZN SPACE FUNCTION GUEST ROOM LIGHTS,NECB-F-LIGHTING,SP-GUESTROOM220_223 SYS-1 FLR-2 SCH-F HPLCMT-NORTH ZN,130.44,5.2,665.465,5.102,127.500,0.000,0.500,0.200,0.300,1.000,General,46.583,419.243
 Lights Internal Gains Nominal, SP-GUESTROOM224 SYS-1 FLR-2 SCH-F HPLCMT-NORTH ZN SPACE FUNCTION GUEST ROOM LIGHTS,NECB-F-LIGHTING,SP-GUESTROOM224 SYS-1 FLR-2 SCH-F HPLCMT-NORTH ZN,32.61,1.3,166.366,5.102,127.500,0.000,0.500,0.200,0.300,1.000,General,11.646,104.811
 Lights Internal Gains Nominal, SP-GUESTROOM301 SYS-1 FLR-3 SCH-F HPLCMT-WEST ZN SPACE FUNCTION GUEST ROOM LIGHTS,NECB-F-LIGHTING,SP-GUESTROOM301 SYS-1 FLR-3 SCH-F HPLCMT-WEST ZN,32.61,1.3,166.378,5.102,127.500,0.000,0.500,0.200,0.300,1.000,General,11.646,104.818
 Lights Internal Gains Nominal, SP-GUESTROOM302_305 SYS-1 FLR-3 SCH-F HPLCMT-SOUTH ZN SPACE FUNCTION GUEST ROOM LIGHTS,NECB-F-LIGHTING,SP-GUESTROOM302_305 SYS-1 FLR-3 SCH-F HPLCMT-SOUTH ZN,130.45,5.2,665.512,5.102,127.500,0.000,0.500,0.200,0.300,1.000,General,46.586,419.273
 Lights Internal Gains Nominal, SP-GUESTROOM306_308 SYS-1 FLR-3 SCH-F HPLCMT-SOUTH ZN SPACE FUNCTION GUEST ROOM LIGHTS,NECB-F-LIGHTING,SP-GUESTROOM306_308 SYS-1 FLR-3 SCH-F HPLCMT-SOUTH ZN,105.36,4.2,537.529,5.102,127.500,0.000,0.500,0.200,0.300,1.000,General,37.627,338.643
 Lights Internal Gains Nominal, SP-GUESTROOM309_312 SYS-1 FLR-3 SCH-F HPLCMT-SOUTH ZN SPACE FUNCTION GUEST ROOM LIGHTS,NECB-F-LIGHTING,SP-GUESTROOM309_312 SYS-1 FLR-3 SCH-F HPLCMT-SOUTH ZN,130.45,5.2,665.512,5.102,127.500,0.000,0.500,0.200,0.300,1.000,General,46.586,419.273
 Lights Internal Gains Nominal, SP-GUESTROOM313 SYS-1 FLR-3 SCH-F HPLCMT-SOUTH ZN SPACE FUNCTION GUEST ROOM LIGHTS,NECB-F-LIGHTING,SP-GUESTROOM313 SYS-1 FLR-3 SCH-F HPLCMT-SOUTH ZN,32.61,1.3,166.378,5.102,127.500,0.000,0.500,0.200,0.300,1.000,General,11.646,104.818
 Lights Internal Gains Nominal, SP-GUESTROOM314 SYS-1 FLR-3 SCH-F HPLCMT-NORTH ZN SPACE FUNCTION GUEST ROOM LIGHTS,NECB-F-LIGHTING,SP-GUESTROOM314 SYS-1 FLR-3 SCH-F HPLCMT-NORTH ZN,32.61,1.3,166.366,5.102,127.500,0.000,0.500,0.200,0.300,1.000,General,11.646,104.811
 Lights Internal Gains Nominal, SP-GUESTROOM315_318 SYS-1 FLR-3 SCH-F HPLCMT-NORTH ZN SPACE FUNCTION GUEST ROOM LIGHTS,NECB-F-LIGHTING,SP-GUESTROOM315_318 SYS-1 FLR-3 SCH-F HPLCMT-NORTH ZN,130.44,5.2,665.465,5.102,127.500,0.000,0.500,0.200,0.300,1.000,General,46.583,419.243
 Lights Internal Gains Nominal, SP-GUESTROOM319 SYS-1 FLR-3 SCH-F HPLCMT-NORTH ZN SPACE FUNCTION GUEST ROOM LIGHTS,NECB-F-LIGHTING,SP-GUESTROOM319 SYS-1 FLR-3 SCH-F HPLCMT-NORTH ZN,32.61,1.3,166.366,5.102,127.500,0.000,0.500,0.200,0.300,1.000,General,11.646,104.811
 Lights Internal Gains Nominal, SP-GUESTROOM320_323 SYS-1 FLR-3 SCH-F HPLCMT-NORTH ZN SPACE FUNCTION GUEST ROOM LIGHTS,NECB-F-LIGHTING,SP-GUESTROOM320_323 SYS-1 FLR-3 SCH-F HPLCMT-NORTH ZN,130.44,5.2,665.465,5.102,127.500,0.000,0.500,0.200,0.300,1.000,General,46.583,419.243
 Lights Internal Gains Nominal, SP-GUESTROOM324 SYS-1 FLR-3 SCH-F HPLCMT-NORTH ZN SPACE FUNCTION GUEST ROOM LIGHTS,NECB-F-LIGHTING,SP-GUESTROOM324 SYS-1 FLR-3 SCH-F HPLCMT-NORTH ZN,32.61,1.3,166.366,5.102,127.500,0.000,0.500,0.200,0.300,1.000,General,11.646,104.811
 Lights Internal Gains Nominal, SP-GUESTROOM401 SYS-1 FLR-4 SCH-F HPLCMT-WEST ZN SPACE FUNCTION GUEST ROOM LIGHTS,NECB-F-LIGHTING,SP-GUESTROOM401 SYS-1 FLR-4 SCH-F HPLCMT-WEST ZN,32.61,1.3,166.378,5.102,127.500,0.000,0.500,0.200,0.300,1.000,General,11.646,104.818
 Lights Internal Gains Nominal, SP-GUESTROOM402_405 SYS-1 FLR-4 SCH-F HPLCMT-SOUTH ZN SPACE FUNCTION GUEST ROOM LIGHTS,NECB-F-LIGHTING,SP-GUESTROOM402_405 SYS-1 FLR-4 SCH-F HPLCMT-SOUTH ZN,130.45,5.2,665.512,5.102,127.500,0.000,0.500,0.200,0.300,1.000,General,46.586,419.273
 Lights Internal Gains Nominal, SP-GUESTROOM406_408 SYS-1 FLR-4 SCH-F HPLCMT-SOUTH ZN SPACE FUNCTION GUEST ROOM LIGHTS,NECB-F-LIGHTING,SP-GUESTROOM406_408 SYS-1 FLR-4 SCH-F HPLCMT-SOUTH ZN,105.36,4.2,537.529,5.102,127.500,0.000,0.500,0.200,0.300,1.000,General,37.627,338.643
 Lights Internal Gains Nominal, SP-GUESTROOM409_412 SYS-1 FLR-4 SCH-F HPLCMT-SOUTH ZN SPACE FUNCTION GUEST ROOM LIGHTS,NECB-F-LIGHTING,SP-GUESTROOM409_412 SYS-1 FLR-4 SCH-F HPLCMT-SOUTH ZN,130.45,5.2,665.512,5.102,127.500,0.000,0.500,0.200,0.300,1.000,General,46.586,419.273
 Lights Internal Gains Nominal, SP-GUESTROOM413 SYS-1 FLR-4 SCH-F HPLCMT-SOUTH ZN SPACE FUNCTION GUEST ROOM LIGHTS,NECB-F-LIGHTING,SP-GUESTROOM413 SYS-1 FLR-4 SCH-F HPLCMT-SOUTH ZN,32.61,1.3,166.378,5.102,127.500,0.000,0.500,0.200,0.300,1.000,General,11.646,104.818
 Lights Internal Gains Nominal, SP-GUESTROOM414 SYS-1 FLR-4 SCH-F HPLCMT-NORTH ZN SPACE FUNCTION GUEST ROOM LIGHTS,NECB-F-LIGHTING,SP-GUESTROOM414 SYS-1 FLR-4 SCH-F HPLCMT-NORTH ZN,32.61,1.3,166.366,5.102,127.500,0.000,0.500,0.200,0.300,1.000,General,11.646,104.811
 Lights Internal Gains Nominal, SP-GUESTROOM415_418 SYS-1 FLR-4 SCH-F HPLCMT-NORTH ZN SPACE FUNCTION GUEST ROOM LIGHTS,NECB-F-LIGHTING,SP-GUESTROOM415_418 SYS-1 FLR-4 SCH-F HPLCMT-NORTH ZN,130.44,5.2,665.465,5.102,127.500,0.000,0.500,0.200,0.300,1.000,General,46.583,419.243
 Lights Internal Gains Nominal, SP-GUESTROOM419 SYS-1 FLR-4 SCH-F HPLCMT-NORTH ZN SPACE FUNCTION GUEST ROOM LIGHTS,NECB-F-LIGHTING,SP-GUESTROOM419 SYS-1 FLR-4 SCH-F HPLCMT-NORTH ZN,32.61,1.3,166.366,5.102,127.500,0.000,0.500,0.200,0.300,1.000,General,11.646,104.811
 Lights Internal Gains Nominal, SP-GUESTROOM420_423 SYS-1 FLR-4 SCH-F HPLCMT-NORTH ZN SPACE FUNCTION GUEST ROOM LIGHTS,NECB-F-LIGHTING,SP-GUESTROOM420_423 SYS-1 FLR-4 SCH-F HPLCMT-NORTH ZN,130.44,5.2,665.465,5.102,127.500,0.000,0.500,0.200,0.300,1.000,General,46.583,419.243
 Lights Internal Gains Nominal, SP-GUESTROOM424 SYS-1 FLR-4 SCH-F HPLCMT-NORTH ZN SPACE FUNCTION GUEST ROOM LIGHTS,NECB-F-LIGHTING,SP-GUESTROOM424 SYS-1 FLR-4 SCH-F HPLCMT-NORTH ZN,32.61,1.3,166.366,5.102,127.500,0.000,0.500,0.200,0.300,1.000,General,11.646,104.811
 Lights Internal Gains Nominal, SP-EXERCISECENTERFLR1 SYS-6 FLR-1 SCH-B HPLCMT-NORTH ZN SPACE FUNCTION GYMNASIUM/FITNESS CENTRE EXERCISE AREA LIGHTS,NECB-B-LIGHTING,SP-EXERCISECENTERFLR1 SYS-6 FLR-1 SCH-B HPLCMT-NORTH ZN,32.61,6.5,254.442,7.803,39.000,0.000,0.500,0.200,0.300,1.000,General,25.444,228.998
 Lights Internal Gains Nominal, SP-ELEVATORCOREFLR1 SYS-3 FLR-1 SCH-C HPLCMT-NORTH ZN SPACE FUNCTION LOBBY - ELEVATOR LIGHTS,NECB-C-LIGHTING,SP-ELEVATORCOREFLR1 SYS-3 FLR-1 SCH-C HPLCMT-NORTH ZN,15.05,1.5,105.390,7.003,70.000,0.000,0.500,0.200,0.300,1.000,General,5.270,94.851
 Lights Internal Gains Nominal, SP-ELEVATORCOREFLR2 SYS-3 FLR-2 SCH-C HPLCMT-NORTH ZN SPACE FUNCTION LOBBY - ELEVATOR LIGHTS,NECB-C-LIGHTING,SP-ELEVATORCOREFLR2 SYS-3 FLR-2 SCH-C HPLCMT-NORTH ZN,15.05,1.5,105.390,7.003,70.000,0.000,0.500,0.200,0.300,1.000,General,5.270,94.851
 Lights Internal Gains Nominal, SP-ELEVATORCOREFLR3 SYS-3 FLR-3 SCH-C HPLCMT-NORTH ZN SPACE FUNCTION LOBBY - ELEVATOR LIGHTS,NECB-C-LIGHTING,SP-ELEVATORCOREFLR3 SYS-3 FLR-3 SCH-C HPLCMT-NORTH ZN,15.05,1.5,105.390,7.003,70.000,0.000,0.500,0.200,0.300,1.000,General,5.270,94.851
 Lights Internal Gains Nominal, SP-ELEVATORCOREFLR4 SYS-3 FLR-4 SCH-C HPLCMT-NORTH ZN SPACE FUNCTION LOBBY - ELEVATOR LIGHTS,NECB-C-LIGHTING,SP-ELEVATORCOREFLR4 SYS-3 FLR-4 SCH-C HPLCMT-NORTH ZN,15.05,1.5,105.390,7.003,70.000,0.000,0.500,0.200,0.300,1.000,General,5.270,94.851
 Lights Internal Gains Nominal, SP-FRONTLOUNGEFLR1 SYS-3 FLR-1 SCH-H HPLCMT-SOUTH ZN SPACE FUNCTION LOBBY - HOTEL LIGHTS,NECB-H-OCCUPANCY-NECB-H-LIGHTING-0.0-0.0-0.67-LIGHT RULESET,SP-FRONTLOUNGEFLR1 SYS-3 FLR-1 SCH-H HPLCMT-SOUTH ZN,163.06,16.3,1875.830,11.504,115.000,0.000,0.500,0.200,0.300,1.000,General,1688.247,1688.247
 Lights Internal Gains Nominal, SP-EMPLOYEELOUNGEFLR1 SYS-3 FLR-1 SCH-B HPLCMT-NORTH ZN SPACE FUNCTION LOUNGE/BREAK ROOM - OTHER LIGHTS,NECB-B-LIGHTING,SP-EMPLOYEELOUNGEFLR1 SYS-3 FLR-1 SCH-B HPLCMT-NORTH ZN,32.61,3.3,257.704,7.903,79.000,0.000,0.500,0.200,0.300,1.000,General,25.770,231.934
 Lights Internal Gains Nominal, SP-FRONTOFFICEFLR1 SYS-6 FLR-1 SCH-A HPLCMT-NORTH ZN SPACE FUNCTION OFFICE ENCLOSED > 25 M2 LIGHTS,NECB-A-OCCUPANCY-NECB-A-LIGHTING-0.3-0.1-0.67-LIGHT RULESET,SP-FRONTOFFICEFLR1 SYS-6 FLR-1 SCH-A HPLCMT-NORTH ZN,130.44,6.5,1565.799,12.004,240.000,0.000,0.500,0.200,0.300,1.000,General,54.725,1409.219
 Lights Internal Gains Nominal, SP-FRONTSTAIRSFLR1 SYS-3 FLR-1 SCH-F HPLCMT-WEST ZN SPACE FUNCTION STAIRWAY/STAIRWELL-SCH-F LIGHTS,NECB-F-LIGHTING,SP-FRONTSTAIRSFLR1 SYS-3 FLR-1 SCH-F HPLCMT-WEST ZN,20.07,0.1,148.550,7.403,1480.000,0.000,0.500,0.200,0.300,1.000,General,10.399,93.587
 Lights Internal Gains Nominal, SP-FRONTSTAIRSFLR2 SYS-3 FLR-2 SCH-F HPLCMT-WEST ZN SPACE FUNCTION STAIRWAY/STAIRWELL-SCH-F LIGHTS,NECB-F-LIGHTING,SP-FRONTSTAIRSFLR2 SYS-3 FLR-2 SCH-F HPLCMT-WEST ZN,20.07,0.1,148.550,7.403,1480.000,0.000,0.500,0.200,0.300,1.000,General,10.399,93.587
 Lights Internal Gains Nominal, SP-FRONTSTAIRSFLR3 SYS-3 FLR-3 SCH-F HPLCMT-WEST ZN SPACE FUNCTION STAIRWAY/STAIRWELL-SCH-F LIGHTS,NECB-F-LIGHTING,SP-FRONTSTAIRSFLR3 SYS-3 FLR-3 SCH-F HPLCMT-WEST ZN,20.07,0.1,148.550,7.403,1480.000,0.000,0.500,0.200,0.300,1.000,General,10.399,93.587
 Lights Internal Gains Nominal, SP-FRONTSTAIRSFLR4 SYS-3 FLR-4 SCH-F HPLCMT-WEST ZN SPACE FUNCTION STAIRWAY/STAIRWELL-SCH-F LIGHTS,NECB-F-LIGHTING,SP-FRONTSTAIRSFLR4 SYS-3 FLR-4 SCH-F HPLCMT-WEST ZN,20.07,0.1,148.550,7.403,1480.000,0.000,0.500,0.200,0.300,1.000,General,10.399,93.587
 Lights Internal Gains Nominal, SP-REARSTAIRSFLR1 SYS-3 FLR-1 SCH-F HPLCMT-EAST ZN SPACE FUNCTION STAIRWAY/STAIRWELL-SCH-F LIGHTS,NECB-F-LIGHTING,SP-REARSTAIRSFLR1 SYS-3 FLR-1 SCH-F HPLCMT-EAST ZN,20.07,0.1,148.586,7.403,1480.000,0.000,0.500,0.200,0.300,1.000,General,10.401,93.609
 Lights Internal Gains Nominal, SP-REARSTAIRSFLR2 SYS-3 FLR-2 SCH-F HPLCMT-EAST ZN SPACE FUNCTION STAIRWAY/STAIRWELL-SCH-F LIGHTS,NECB-F-LIGHTING,SP-REARSTAIRSFLR2 SYS-3 FLR-2 SCH-F HPLCMT-EAST ZN,20.07,0.1,148.586,7.403,1480.000,0.000,0.500,0.200,0.300,1.000,General,10.401,93.609
 Lights Internal Gains Nominal, SP-REARSTAIRSFLR3 SYS-3 FLR-3 SCH-F HPLCMT-EAST ZN SPACE FUNCTION STAIRWAY/STAIRWELL-SCH-F LIGHTS,NECB-F-LIGHTING,SP-REARSTAIRSFLR3 SYS-3 FLR-3 SCH-F HPLCMT-EAST ZN,20.07,0.1,148.586,7.403,1480.000,0.000,0.500,0.200,0.300,1.000,General,10.401,93.609
 Lights Internal Gains Nominal, SP-REARSTAIRSFLR4 SYS-3 FLR-4 SCH-F HPLCMT-EAST ZN SPACE FUNCTION STAIRWAY/STAIRWELL-SCH-F LIGHTS,NECB-F-LIGHTING,SP-REARSTAIRSFLR4 SYS-3 FLR-4 SCH-F HPLCMT-EAST ZN,20.07,0.1,148.586,7.403,1480.000,0.000,0.500,0.200,0.300,1.000,General,10.401,93.609
 Lights Internal Gains Nominal, SP-FRONTSTORAGEFLR1 SYS-4 FLR-1 SCH-F HPLCMT-NORTH ZN SPACE FUNCTION STORAGE ROOM <= 5 M2 <= 100 M2-SCH-F LIGHTS,NECB-F-LIGHTING,SP-FRONTSTORAGEFLR1 SYS-4 FLR-1 SCH-F HPLCMT-NORTH ZN,12.54,0.1,85.316,6.802,680.000,0.000,0.500,0.200,0.300,1.000,General,5.972,53.749
 Lights Internal Gains Nominal, SP-FRONTSTORAGEFLR2 SYS-4 FLR-2 SCH-F HPLCMT-NORTH ZN SPACE FUNCTION STORAGE ROOM <= 5 M2 <= 100 M2-SCH-F LIGHTS,NECB-F-LIGHTING,SP-FRONTSTORAGEFLR2 SYS-4 FLR-2 SCH-F HPLCMT-NORTH ZN,12.54,0.1,85.316,6.802,680.000,0.000,0.500,0.200,0.300,1.000,General,5.972,53.749
 Lights Internal Gains Nominal, SP-FRONTSTORAGEFLR3 SYS-4 FLR-3 SCH-F HPLCMT-NORTH ZN SPACE FUNCTION STORAGE ROOM <= 5 M2 <= 100 M2-SCH-F LIGHTS,NECB-F-LIGHTING,SP-FRONTSTORAGEFLR3 SYS-4 FLR-3 SCH-F HPLCMT-NORTH ZN,12.54,0.1,85.316,6.802,680.000,0.000,0.500,0.200,0.300,1.000,General,5.972,53.749
 Lights Internal Gains Nominal, SP-FRONTSTORAGEFLR4 SYS-4 FLR-4 SCH-F HPLCMT-NORTH ZN SPACE FUNCTION STORAGE ROOM <= 5 M2 <= 100 M2-SCH-F LIGHTS,NECB-F-LIGHTING,SP-FRONTSTORAGEFLR4 SYS-4 FLR-4 SCH-F HPLCMT-NORTH ZN,12.54,0.1,85.316,6.802,680.000,0.000,0.500,0.200,0.300,1.000,General,5.972,53.749
 Lights Internal Gains Nominal, SP-LAUNDRYROOMFLR1 SYS-4 FLR-1 SCH-F HPLCMT-NORTH ZN SPACE FUNCTION STORAGE ROOM <= 5 M2 <= 100 M2-SCH-F LIGHTS,NECB-F-LIGHTING,SP-LAUNDRYROOMFLR1 SYS-4 FLR-1 SCH-F HPLCMT-NORTH ZN,97.83,1.0,665.465,6.802,680.000,0.000,0.500,0.200,0.300,1.000,General,46.583,419.243
 Lights Internal Gains Nominal, SP-REARSTORAGEFLR1 SYS-4 FLR-1 SCH-F HPLCMT-EAST ZN SPACE FUNCTION STORAGE ROOM <= 5 M2 <= 100 M2-SCH-F LIGHTS,NECB-F-LIGHTING,SP-REARSTORAGEFLR1 SYS-4 FLR-1 SCH-F HPLCMT-EAST ZN,20.07,0.2,136.548,6.802,680.000,0.000,0.500,0.200,0.300,1.000,General,9.558,86.025
 Lights Internal Gains Nominal, SP-REARSTORAGEFLR2 SYS-4 FLR-2 SCH-F HPLCMT-EAST ZN SPACE FUNCTION STORAGE ROOM <= 5 M2 <= 100 M2-SCH-F LIGHTS,NECB-F-LIGHTING,SP-REARSTORAGEFLR2 SYS-4 FLR-2 SCH-F HPLCMT-EAST ZN,20.07,0.2,136.548,6.802,680.000,0.000,0.500,0.200,0.300,1.000,General,9.558,86.025
 Lights Internal Gains Nominal, SP-REARSTORAGEFLR3 SYS-4 FLR-3 SCH-F HPLCMT-EAST ZN SPACE FUNCTION STORAGE ROOM <= 5 M2 <= 100 M2-SCH-F LIGHTS,NECB-F-LIGHTING,SP-REARSTORAGEFLR3 SYS-4 FLR-3 SCH-F HPLCMT-EAST ZN,20.07,0.2,136.548,6.802,680.000,0.000,0.500,0.200,0.300,1.000,General,9.558,86.025
 Lights Internal Gains Nominal, SP-REARSTORAGEFLR4 SYS-4 FLR-4 SCH-F HPLCMT-EAST ZN SPACE FUNCTION STORAGE ROOM <= 5 M2 <= 100 M2-SCH-F LIGHTS,NECB-F-LIGHTING,SP-REARSTORAGEFLR4 SYS-4 FLR-4 SCH-F HPLCMT-EAST ZN,20.07,0.2,136.548,6.802,680.000,0.000,0.500,0.200,0.300,1.000,General,9.558,86.025
 Lights Internal Gains Nominal, SP-RESTROOMFLR1 SYS-3 FLR-1 SCH-F HPLCMT-SOUTH ZN SPACE FUNCTION WASHROOM - OTHER-SCH-F LIGHTS,NECB-F-OCCUPANCY-NECB-F-LIGHTING-0.5-0.0-0.67-LIGHT RULESET,SP-RESTROOMFLR1 SYS-3 FLR-1 SCH-F HPLCMT-SOUTH ZN,32.61,1.1,342.543,10.504,315.000,0.000,0.500,0.200,0.300,1.000,General,23.978,191.824
! <ElectricEquipment Internal Gains Nominal>,Name,Schedule Name,Zone Name,Zone Floor Area {m2},# Zone Occupants,Equipment Level {W},Equipment/Floor Area {W/m2},Equipment per person {W/person},Fraction Latent,Fraction Radiant,Fraction Lost,Fraction Convected,End-Use SubCategory,Nominal Minimum Equipment Level {W},Nominal Maximum Equipment Level {W}
 ElectricEquipment Internal Gains Nominal, SP-MECHANICALROOMFLR1 SYS-3 FLR-1 SCH-F HPLCMT-SOUTH ZN SPACE FUNCTION ELECTRICAL/MECHANICAL ROOM-SCH-F ELEC EQUIP,NECB-F-ELECTRIC-EQUIPMENT,SP-MECHANICALROOMFLR1 SYS-3 FLR-1 SCH-F HPLCMT-SOUTH ZN,32.61,0.2,32.623,1.000,200.000,0.000,0.500,0.000,0.500,General,2.284,20.553
 ElectricEquipment Internal Gains Nominal, SP-MEETINGROOMFLR1 SYS-3 FLR-1 SCH-F HPLCMT-SOUTH ZN SPACE FUNCTION ELECTRICAL/MECHANICAL ROOM-SCH-F ELEC EQUIP,NECB-F-ELECTRIC-EQUIPMENT,SP-MEETINGROOMFLR1 SYS-3 FLR-1 SCH-F HPLCMT-SOUTH ZN,80.27,0.4,80.303,1.000,200.000,0.000,0.500,0.000,0.500,General,5.621,50.591
 ElectricEquipment Internal Gains Nominal, SP-GUESTROOM101 SYS-1 FLR-1 SCH-F HPLCMT-SOUTH ZN SPACE FUNCTION GUEST ROOM ELEC EQUIP,NECB-F-ELECTRIC-EQUIPMENT,SP-GUESTROOM101 SYS-1 FLR-1 SCH-F HPLCMT-SOUTH ZN,32.61,1.3,81.558,2.501,62.500,0.000,0.500,0.000,0.500,General,5.709,51.381
 ElectricEquipment Internal Gains Nominal, SP-GUESTROOM102 SYS-1 FLR-1 SCH-F HPLCMT-SOUTH ZN SPACE FUNCTION GUEST ROOM ELEC EQUIP,NECB-F-ELECTRIC-EQUIPMENT,SP-GUESTROOM102 SYS-1 FLR-1 SCH-F HPLCMT-SOUTH ZN,32.61,1.3,81.558,2.501,62.500,0.000,0.500,0.000,0.500,General,5.709,51.381
 ElectricEquipment Internal Gains Nominal, SP-GUESTROOM103 SYS-1 FLR-1 SCH-F HPLCMT-SOUTH ZN SPACE FUNCTION GUEST ROOM ELEC EQUIP,NECB-F-ELECTRIC-EQUIPMENT,SP-GUESTROOM103 SYS-1 FLR-1 SCH-F HPLCMT-SOUTH ZN,32.61,1.3,81.558,2.501,62.500,0.000,0.500,0.000,0.500,General,5.709,51.381
 ElectricEquipment Internal Gains Nominal, SP-GUESTROOM104 SYS-1 FLR-1 SCH-F HPLCMT-NORTH ZN SPACE FUNCTION GUEST ROOM ELEC EQUIP,NECB-F-ELECTRIC-EQUIPMENT,SP-GUESTROOM104 SYS-1 FLR-1 SCH-F HPLCMT-NORTH ZN,32.61,1.3,81.552,2.501,62.500,0.000,0.500,0.000,0.500,General,5.709,51.378
 ElectricEquipment Internal Gains Nominal, SP-GUESTROOM105 SYS-1 FLR-1 SCH-F HPLCMT-NORTH ZN SPACE FUNCTION GUEST ROOM ELEC EQUIP,NECB-F-ELECTRIC-EQUIPMENT,SP-GUESTROOM105 SYS-1 FLR-1 SCH-F HPLCMT-NORTH ZN,32.61,1.3,81.552,2.501,62.500,0.000,0.500,0.000,0.500,General,5.709,51.378
 ElectricEquipment Internal Gains Nominal, SP-GUESTROOM201 SYS-1 FLR-2 SCH-F HPLCMT-WEST ZN SPACE FUNCTION GUEST ROOM ELEC EQUIP,NECB-F-ELECTRIC-EQUIPMENT,SP-GUESTROOM201 SYS-1 FLR-2 SCH-F HPLCMT-WEST ZN,32.61,1.3,81.558,2.501,62.500,0.000,0.500,0.000,0.500,General,5.709,51.381
 ElectricEquipment Internal Gains Nominal, SP-GUESTROOM202_205 SYS-1 FLR-2 SCH-F HPLCMT-SOUTH ZN SPACE FUNCTION GUEST ROOM ELEC EQUIP,NECB-F-ELECTRIC-EQUIPMENT,SP-GUESTROOM202_205 SYS-1 FLR-2 SCH-F HPLCMT-SOUTH ZN,130.45,5.2,326.231,2.501,62.500,0.000,0.500,0.000,0.500,General,22.836,205.526
 ElectricEquipment Internal Gains Nominal, SP-GUESTROOM206_208 SYS-1 FLR-2 SCH-F HPLCMT-SOUTH ZN SPACE FUNCTION GUEST ROOM ELEC EQUIP,NECB-F-ELECTRIC-EQUIPMENT,SP-GUESTROOM206_208 SYS-1 FLR-2 SCH-F HPLCMT-SOUTH ZN,105.36,4.2,263.495,2.501,62.500,0.000,0.500,0.000,0.500,General,18.445,166.002
 ElectricEquipment Internal Gains Nominal, SP-GUESTROOM209_212 SYS-1 FLR-2 SCH-F HPLCMT-SOUTH ZN SPACE FUNCTION GUEST ROOM ELEC EQUIP,NECB-F-ELECTRIC-EQUIPMENT,SP-GUESTROOM209_212 SYS-1 FLR-2 SCH-F HPLCMT-SOUTH ZN,130.45,5.2,326.231,2.501,62.500,0.000,0.500,0.000,0.500,General,22.836,205.526
 ElectricEquipment Internal Gains Nominal, SP-GUESTROOM213 SYS-1 FLR-2 SCH-F HPLCMT-SOUTH ZN SPACE FUNCTION GUEST ROOM ELEC EQUIP,NECB-F-ELECTRIC-EQUIPMENT,SP-GUESTROOM213 SYS-1 FLR-2 SCH-F HPLCMT-SOUTH ZN,32.61,1.3,81.558,2.501,62.500,0.000,0.500,0.000,0.500,General,5.709,51.381
 ElectricEquipment Internal Gains Nominal, SP-GUESTROOM214 SYS-1 FLR-2 SCH-F HPLCMT-NORTH ZN SPACE FUNCTION GUEST ROOM ELEC EQUIP,NECB-F-ELECTRIC-EQUIPMENT,SP-GUESTROOM214 SYS-1 FLR-2 SCH-F HPLCMT-NORTH ZN,32.61,1.3,81.552,2.501,62.500,0.000,0.500,0.000,0.500,General,5.709,51.378
 ElectricEquipment Internal Gains Nominal, SP-GUESTROOM215_218 SYS-1 FLR-2 SCH-F HPLCMT-NORTH ZN SPACE FUNCTION GUEST ROOM ELEC EQUIP,NECB-F-ELECTRIC-EQUIPMENT,SP-GUESTROOM215_218 SYS-1 FLR-2 SCH-F HPLCMT-NORTH ZN,130.44,5.2,326.208,2.501,62.500,0.000,0.500,0.000,0.500,General,22.835,205.511
 ElectricEquipment Internal Gains Nominal, SP-GUESTROOM219 SYS-1 FLR-2 SCH-F HPLCMT-NORTH ZN SPACE FUNCTION GUEST ROOM ELEC EQUIP,NECB-F-ELECTRIC-EQUIPMENT,SP-GUESTROOM219 SYS-1 FLR-2 SCH-F HPLCMT-NORTH ZN,32.61,1.3,81.552,2.501,62.500,0.000,0.500,0.000,0.500,General,5.709,51.378
 ElectricEquipment Internal Gains Nominal, SP-GUESTROOM220_223 SYS-1 FLR-2 SCH-F HPLCMT-NORTH ZN SPACE FUNCTION GUEST ROOM ELEC EQUIP,NECB-F-ELECTRIC-EQUIPMENT,SP-GUESTROOM220_223 SYS-1 FLR-2 SCH-F HPLCMT-NORTH ZN,130.44,5.2,326.208,2.501,62.500,0.000,0.500,0.000,0.500,General,22.835,205.511
 ElectricEquipment Internal Gains Nominal, SP-GUESTROOM224 SYS-1 FLR-2 SCH-F HPLCMT-NORTH ZN SPACE FUNCTION GUEST ROOM ELEC EQUIP,NECB-F-ELECTRIC-EQUIPMENT,SP-GUESTROOM224 SYS-1 FLR-2 SCH-F HPLCMT-NORTH ZN,32.61,1.3,81.552,2.501,62.500,0.000,0.500,0.000,0.500,General,5.709,51.378
 ElectricEquipment Internal Gains Nominal, SP-GUESTROOM301 SYS-1 FLR-3 SCH-F HPLCMT-WEST ZN SPACE FUNCTION GUEST ROOM ELEC EQUIP,NECB-F-ELECTRIC-EQUIPMENT,SP-GUESTROOM301 SYS-1 FLR-3 SCH-F HPLCMT-WEST ZN,32.61,1.3,81.558,2.501,62.500,0.000,0.500,0.000,0.500,General,5.709,51.381
 ElectricEquipment Internal Gains Nominal, SP-GUESTROOM302_305 SYS-1 FLR-3 SCH-F HPLCMT-SOUTH ZN SPACE FUNCTION GUEST ROOM ELEC EQUIP,NECB-F-ELECTRIC-EQUIPMENT,SP-GUESTROOM302_305 SYS-1 FLR-3 SCH-F HPLCMT-SOUTH ZN,130.45,5.2,326.231,2.501,62.500,0.000,0.500,0.000,0.500,General,22.836,205.526
 ElectricEquipment Internal Gains Nominal, SP-GUESTROOM306_308 SYS-1 FLR-3 SCH-F HPLCMT-SOUTH ZN SPACE FUNCTION GUEST ROOM ELEC EQUIP,NECB-F-ELECTRIC-EQUIPMENT,SP-GUESTROOM306_308 SYS-1 FLR-3 SCH-F HPLCMT-SOUTH ZN,105.36,4.2,263.495,2.501,62.500,0.000,0.500,0.000,0.500,General,18.445,166.002
 ElectricEquipment Internal Gains Nominal, SP-GUESTROOM309_312 SYS-1 FLR-3 SCH-F HPLCMT-SOUTH ZN SPACE FUNCTION GUEST ROOM ELEC EQUIP,NECB-F-ELECTRIC-EQUIPMENT,SP-GUESTROOM309_312 SYS-1 FLR-3 SCH-F HPLCMT-SOUTH ZN,130.45,5.2,326.231,2.501,62.500,0.000,0.500,0.000,0.500,General,22.836,205.526
 ElectricEquipment Internal Gains Nominal, SP-GUESTROOM313 SYS-1 FLR-3 SCH-F HPLCMT-SOUTH ZN SPACE FUNCTION GUEST ROOM ELEC EQUIP,NECB-F-ELECTRIC-EQUIPMENT,SP-GUESTROOM313 SYS-1 FLR-3 SCH-F HPLCMT-SOUTH ZN,32.61,1.3,81.558,2.501,62.500,0.000,0.500,0.000,0.500,General,5.709,51.381
 ElectricEquipment Internal Gains Nominal, SP-GUESTROOM314 SYS-1 FLR-3 SCH-F HPLCMT-NORTH ZN SPACE FUNCTION GUEST ROOM ELEC EQUIP,NECB-F-ELECTRIC-EQUIPMENT,SP-GUESTROOM314 SYS-1 FLR-3 SCH-F HPLCMT-NORTH ZN,32.61,1.3,81.552,2.501,62.500,0.000,0.500,0.000,0.500,General,5.709,51.378
 ElectricEquipment Internal Gains Nominal, SP-GUESTROOM315_318 SYS-1 FLR-3 SCH-F HPLCMT-NORTH ZN SPACE FUNCTION GUEST ROOM ELEC EQUIP,NECB-F-ELECTRIC-EQUIPMENT,SP-GUESTROOM315_318 SYS-1 FLR-3 SCH-F HPLCMT-NORTH ZN,130.44,5.2,326.208,2.501,62.500,0.000,0.500,0.000,0.500,General,22.835,205.511
 ElectricEquipment Internal Gains Nominal, SP-GUESTROOM319 SYS-1 FLR-3 SCH-F HPLCMT-NORTH ZN SPACE FUNCTION GUEST ROOM ELEC EQUIP,NECB-F-ELECTRIC-EQUIPMENT,SP-GUESTROOM319 SYS-1 FLR-3 SCH-F HPLCMT-NORTH ZN,32.61,1.3,81.552,2.501,62.500,0.000,0.500,0.000,0.500,General,5.709,51.378
 ElectricEquipment Internal Gains Nominal, SP-GUESTROOM320_323 SYS-1 FLR-3 SCH-F HPLCMT-NORTH ZN SPACE FUNCTION GUEST ROOM ELEC EQUIP,NECB-F-ELECTRIC-EQUIPMENT,SP-GUESTROOM320_323 SYS-1 FLR-3 SCH-F HPLCMT-NORTH ZN,130.44,5.2,326.208,2.501,62.500,0.000,0.500,0.000,0.500,General,22.835,205.511
 ElectricEquipment Internal Gains Nominal, SP-GUESTROOM324 SYS-1 FLR-3 SCH-F HPLCMT-NORTH ZN SPACE FUNCTION GUEST ROOM ELEC EQUIP,NECB-F-ELECTRIC-EQUIPMENT,SP-GUESTROOM324 SYS-1 FLR-3 SCH-F HPLCMT-NORTH ZN,32.61,1.3,81.552,2.501,62.500,0.000,0.500,0.000,0.500,General,5.709,51.378
 ElectricEquipment Internal Gains Nominal, SP-GUESTROOM401 SYS-1 FLR-4 SCH-F HPLCMT-WEST ZN SPACE FUNCTION GUEST ROOM ELEC EQUIP,NECB-F-ELECTRIC-EQUIPMENT,SP-GUESTROOM401 SYS-1 FLR-4 SCH-F HPLCMT-WEST ZN,32.61,1.3,81.558,2.501,62.500,0.000,0.500,0.000,0.500,General,5.709,51.381
 ElectricEquipment Internal Gains Nominal, SP-GUESTROOM402_405 SYS-1 FLR-4 SCH-F HPLCMT-SOUTH ZN SPACE FUNCTION GUEST ROOM ELEC EQUIP,NECB-F-ELECTRIC-EQUIPMENT,SP-GUESTROOM402_405 SYS-1 FLR-4 SCH-F HPLCMT-SOUTH ZN,130.45,5.2,326.231,2.501,62.500,0.000,0.500,0.000,0.500,General,22.836,205.526
 ElectricEquipment Internal Gains Nominal, SP-GUESTROOM406_408 SYS-1 FLR-4 SCH-F HPLCMT-SOUTH ZN SPACE FUNCTION GUEST ROOM ELEC EQUIP,NECB-F-ELECTRIC-EQUIPMENT,SP-GUESTROOM406_408 SYS-1 FLR-4 SCH-F HPLCMT-SOUTH ZN,105.36,4.2,263.495,2.501,62.500,0.000,0.500,0.000,0.500,General,18.445,166.002
 ElectricEquipment Internal Gains Nominal, SP-GUESTROOM409_412 SYS-1 FLR-4 SCH-F HPLCMT-SOUTH ZN SPACE FUNCTION GUEST ROOM ELEC EQUIP,NECB-F-ELECTRIC-EQUIPMENT,SP-GUESTROOM409_412 SYS-1 FLR-4 SCH-F HPLCMT-SOUTH ZN,130.45,5.2,326.231,2.501,62.500,0.000,0.500,0.000,0.500,General,22.836,205.526
 ElectricEquipment Internal Gains Nominal, SP-GUESTROOM413 SYS-1 FLR-4 SCH-F HPLCMT-SOUTH ZN SPACE FUNCTION GUEST ROOM ELEC EQUIP,NECB-F-ELECTRIC-EQUIPMENT,SP-GUESTROOM413 SYS-1 FLR-4 SCH-F HPLCMT-SOUTH ZN,32.61,1.3,81.558,2.501,62.500,0.000,0.500,0.000,0.500,General,5.709,51.381
 ElectricEquipment Internal Gains Nominal, SP-GUESTROOM414 SYS-1 FLR-4 SCH-F HPLCMT-NORTH ZN SPACE FUNCTION GUEST ROOM ELEC EQUIP,NECB-F-ELECTRIC-EQUIPMENT,SP-GUESTROOM414 SYS-1 FLR-4 SCH-F HPLCMT-NORTH ZN,32.61,1.3,81.552,2.501,62.500,0.000,0.500,0.000,0.500,General,5.709,51.378
 ElectricEquipment Internal Gains Nominal, SP-GUESTROOM415_418 SYS-1 FLR-4 SCH-F HPLCMT-NORTH ZN SPACE FUNCTION GUEST ROOM ELEC EQUIP,NECB-F-ELECTRIC-EQUIPMENT,SP-GUESTROOM415_418 SYS-1 FLR-4 SCH-F HPLCMT-NORTH ZN,130.44,5.2,326.208,2.501,62.500,0.000,0.500,0.000,0.500,General,22.835,205.511
 ElectricEquipment Internal Gains Nominal, SP-GUESTROOM419 SYS-1 FLR-4 SCH-F HPLCMT-NORTH ZN SPACE FUNCTION GUEST ROOM ELEC EQUIP,NECB-F-ELECTRIC-EQUIPMENT,SP-GUESTROOM419 SYS-1 FLR-4 SCH-F HPLCMT-NORTH ZN,32.61,1.3,81.552,2.501,62.500,0.000,0.500,0.000,0.500,General,5.709,51.378
 ElectricEquipment Internal Gains Nominal, SP-GUESTROOM420_423 SYS-1 FLR-4 SCH-F HPLCMT-NORTH ZN SPACE FUNCTION GUEST ROOM ELEC EQUIP,NECB-F-ELECTRIC-EQUIPMENT,SP-GUESTROOM420_423 SYS-1 FLR-4 SCH-F HPLCMT-NORTH ZN,130.44,5.2,326.208,2.501,62.500,0.000,0.500,0.000,0.500,General,22.835,205.511
 ElectricEquipment Internal Gains Nominal, SP-GUESTROOM424 SYS-1 FLR-4 SCH-F HPLCMT-NORTH ZN SPACE FUNCTION GUEST ROOM ELEC EQUIP,NECB-F-ELECTRIC-EQUIPMENT,SP-GUESTROOM424 SYS-1 FLR-4 SCH-F HPLCMT-NORTH ZN,32.61,1.3,81.552,2.501,62.500,0.000,0.500,0.000,0.500,General,5.709,51.378
 ElectricEquipment Internal Gains Nominal, SP-EXERCISECENTERFLR1 SYS-6 FLR-1 SCH-B HPLCMT-NORTH ZN SPACE FUNCTION GYMNASIUM/FITNESS CENTRE EXERCISE AREA ELEC EQUIP,NECB-B-ELECTRIC-EQUIPMENT,SP-EXERCISECENTERFLR1 SYS-6 FLR-1 SCH-B HPLCMT-NORTH ZN,32.61,6.5,32.621,1.000,5.000,0.000,0.500,0.000,0.500,General,3.262,29.359
 ElectricEquipment Internal Gains Nominal, SP-ELEVATORCOREFLR1 SYS-3 FLR-1 SCH-C HPLCMT-NORTH ZN SPACE FUNCTION LOBBY - ELEVATOR ELEC EQUIP,NECB-C-ELECTRIC-EQUIPMENT,SP-ELEVATORCOREFLR1 SYS-3 FLR-1 SCH-C HPLCMT-NORTH ZN,15.05,1.5,15.056,1.000,10.000,0.000,0.500,0.000,0.500,General,0.753,13.550
 ElectricEquipment Internal Gains Nominal, SP-ELEVATORCOREFLR2 SYS-3 FLR-2 SCH-C HPLCMT-NORTH ZN SPACE FUNCTION LOBBY - ELEVATOR ELEC EQUIP,NECB-C-ELECTRIC-EQUIPMENT,SP-ELEVATORCOREFLR2 SYS-3 FLR-2 SCH-C HPLCMT-NORTH ZN,15.05,1.5,15.056,1.000,10.000,0.000,0.500,0.000,0.500,General,0.753,13.550
 ElectricEquipment Internal Gains Nominal, SP-ELEVATORCOREFLR3 SYS-3 FLR-3 SCH-C HPLCMT-NORTH ZN SPACE FUNCTION LOBBY - ELEVATOR ELEC EQUIP,NECB-C-ELECTRIC-EQUIPMENT,SP-ELEVATORCOREFLR3 SYS-3 FLR-3 SCH-C HPLCMT-NORTH ZN,15.05,1.5,