Program Version,EnergyPlus, Version 8.9.0-eba93e8e1b, YMD=2018.09.18 17:35
! <Version>, Version ID
 Version, 8.9
! <Timesteps per Hour>, #TimeSteps, Minutes per TimeStep {minutes}
 Timesteps per Hour,  4, 15
! <System Convergence Limits>, Minimum System TimeStep {minutes}, Max HVAC Iterations, Minimum Plant Iterations, Maximum Plant Iterations
 System Convergence Limits, 1, 20, 2, 8
! <Simulation Control>, Do Zone Sizing, Do System Sizing, Do Plant Sizing, Do Design Days, Do Weather Simulation, Do HVAC Sizing Simulation
 Simulation Control, Yes, Yes, Yes, Yes, No, No
! <Output Reporting Tolerances>, Tolerance for Time Heating Setpoint Not Met, Tolerance for Zone Cooling Setpoint Not Met Time
 Output Reporting Tolerances, 0.200, 0.200, 
! <Site:GroundTemperature:BuildingSurface>,Jan{C},Feb{C},Mar{C},Apr{C},May{C},Jun{C},Jul{C},Aug{C},Sep{C},Oct{C},Nov{C},Dec{C}
 Site:GroundTemperature:BuildingSurface,  19.53,  19.50,  19.54,  19.60,  20.00,  21.64,  22.23,  22.38,  21.45,  20.12,  19.80,  19.63
! <Site:GroundTemperature:FCfactorMethod>,Jan{C},Feb{C},Mar{C},Apr{C},May{C},Jun{C},Jul{C},Aug{C},Sep{C},Oct{C},Nov{C},Dec{C}
 Site:GroundTemperature:FCfactorMethod,   4.64,   4.08,   5.08,   6.66,  10.79,  13.98,  16.13,  16.78,  15.67,  13.19,   9.89,   6.82
! <Site:GroundTemperature:Shallow>,Jan{C},Feb{C},Mar{C},Apr{C},May{C},Jun{C},Jul{C},Aug{C},Sep{C},Oct{C},Nov{C},Dec{C}
 Site:GroundTemperature:Shallow,  13.00,  13.00,  13.00,  13.00,  13.00,  13.00,  13.00,  13.00,  13.00,  13.00,  13.00,  13.00
! <Site:GroundTemperature:Deep>,Jan{C},Feb{C},Mar{C},Apr{C},May{C},Jun{C},Jul{C},Aug{C},Sep{C},Oct{C},Nov{C},Dec{C}
 Site:GroundTemperature:Deep,  16.00,  16.00,  16.00,  16.00,  16.00,  16.00,  16.00,  16.00,  16.00,  16.00,  16.00,  16.00
! <Site:GroundReflectance>,Jan{dimensionless},Feb{dimensionless},Mar{dimensionless},Apr{dimensionless},May{dimensionless},Jun{dimensionless},Jul{dimensionless},Aug{dimensionless},Sep{dimensionless},Oct{dimensionless},Nov{dimensionless},Dec{dimensionless}
 Site:GroundReflectance,  0.20,  0.20,  0.20,  0.20,  0.20,  0.20,  0.20,  0.20,  0.20,  0.20,  0.20,  0.20
! <Site:GroundReflectance:SnowModifier>, Normal, Daylighting {dimensionless}
 Site:GroundReflectance:SnowModifier,   1.000,   1.000
! <Site:GroundReflectance:Snow>,Jan{dimensionless},Feb{dimensionless},Mar{dimensionless},Apr{dimensionless},May{dimensionless},Jun{dimensionless},Jul{dimensionless},Aug{dimensionless},Sep{dimensionless},Oct{dimensionless},Nov{dimensionless},Dec{dimensionless}
 Site:GroundReflectance:Snow,  0.20,  0.20,  0.20,  0.20,  0.20,  0.20,  0.20,  0.20,  0.20,  0.20,  0.20,  0.20
! <Site:GroundReflectance:Snow:Daylighting>,Jan{dimensionless},Feb{dimensionless},Mar{dimensionless},Apr{dimensionless},May{dimensionless},Jun{dimensionless},Jul{dimensionless},Aug{dimensionless},Sep{dimensionless},Oct{dimensionless},Nov{dimensionless},Dec{dimensionless}
 Site:GroundReflectance:Snow:Daylighting,  0.20,  0.20,  0.20,  0.20,  0.20,  0.20,  0.20,  0.20,  0.20,  0.20,  0.20,  0.20
! <Environment:Weather Station>,Wind Sensor Height Above Ground {m},Wind Speed Profile Exponent {},Wind Speed Profile Boundary Layer Thickness {m},Air Temperature Sensor Height Above Ground {m},Wind Speed Modifier Coefficient-Internal,Temperature Modifier Coefficient-Internal
Environment:Weather Station,10.000,0.140,270.000,1.500,1.586,9.750E-003
! <Site:Location>, Location Name, Latitude {N+/S- Deg}, Longitude {E+/W- Deg},  Time Zone Number {GMT+/-}, Elevation {m},  Standard Pressure at Elevation {Pa}, Standard RhoAir at Elevation
Site:Location,Vancouver Intl AP BC CAN CWEC2016 WMO#=718920,49.20,-123.18,-8.00,4.30,101273,1.2037
! <Building Information>, Building Name,North Axis {deg},Terrain,  Loads Convergence Tolerance Value,Temperature Convergence Tolerance Value,  Solar Distribution,Maximum Number of Warmup Days,Minimum Number of Warmup Days
 Building Information,SmallHotel-CAN_BC_Vancouver.Intl.AP.718920_CWEC2016.epw created: 2018-09-18 17:35:47 +0000,180.000,Suburbs,4.00000E-002,0.40000,FullExterior,25,6
! <Inside Convection Algorithm>, Algorithm {Simple | TARP | CeilingDiffuser | AdaptiveConvectionAlgorithm}
Inside Convection Algorithm,TARP
! <Outside Convection Algorithm>, Algorithm {SimpleCombined | TARP | MoWitt | DOE-2 | AdaptiveConvectionAlgorithm}
Outside Convection Algorithm,TARP
! <Sky Radiance Distribution>, Value {Anisotropic}
Sky Radiance Distribution,Anisotropic
! <Zone Air Solution Algorithm>, Value {ThirdOrderBackwardDifference | AnalyticalSolution | EulerMethod}
 Zone Air Solution Algorithm, ThirdOrderBackwardDifference
! <Zone Air Carbon Dioxide Balance Simulation>, Simulation {Yes/No}, Carbon Dioxide Concentration
 Zone Air Carbon Dioxide Balance Simulation, No,N/A
! <Zone Air Generic Contaminant Balance Simulation>, Simulation {Yes/No}, Generic Contaminant Concentration
 Zone Air Generic Contaminant Balance Simulation, No,N/A
! <Zone Air Mass Flow Balance Simulation>, Enforce Mass Balance, Adjust Zone Mixing, Adjust Zone Infiltration {AddInfiltration | AdjustInfiltration | None}, Infiltration Zones {MixingSourceZonesOnly | AllZones}
 Zone Air Mass Flow Balance Simulation, No,N/A,N/A,N/A
! <HVACSystemRootFindingAlgorithm>, Value {RegulaFalsi | Bisection | BisectionThenRegulaFalsi | RegulaFalsiThenBisection}
 HVACSystemRootFindingAlgorithm, RegulaFalsi
! <Environment:Site Atmospheric Variation>,Wind Speed Profile Exponent {},Wind Speed Profile Boundary Layer Thickness {m},Air Temperature Gradient Coefficient {K/m}
Environment:Site Atmospheric Variation,0.220,370.000,6.500000E-003
! <Surface Geometry>,Starting Corner,Vertex Input Direction,Coordinate System,Daylight Reference Point Coordinate System,Rectangular (Simple) Surface Coordinate System
 Surface Geometry,UpperLeftCorner,Counterclockwise,RelativeCoordinateSystem,RelativeCoordinateSystem,RelativeToZoneOrigin
! <Surface Heat Transfer Algorithm>, Value {CTF - ConductionTransferFunction | EMPD - MoisturePenetrationDepthConductionTransferFunction | CondFD - ConductionFiniteDifference | HAMT - CombinedHeatAndMoistureFiniteElement} - Description,Inside Surface Max Temperature Limit{C}, Surface Convection Coefficient Lower Limit {W/m2-K}, Surface Convection Coefficient Upper Limit {W/m2-K}
Surface Heat Transfer Algorithm, CTF - ConductionTransferFunction,200,0.10,1000.0
! <Shading Summary>, Number of Fixed Detached Shades, Number of Building Detached Shades, Number of Attached Shades
 Shading Summary,0,0,2
! <Zone Summary>, Number of Zones, Number of Zone Surfaces, Number of SubSurfaces
 Zone Summary,67,588,103
! <Zone Information>,Zone Name,North Axis {deg},Origin X-Coordinate {m},Origin Y-Coordinate {m},Origin Z-Coordinate {m},Centroid X-Coordinate {m},Centroid Y-Coordinate {m},Centroid Z-Coordinate {m},Type,Zone Multiplier,Zone List Multiplier,Minimum X {m},Maximum X {m},Minimum Y {m},Maximum Y {m},Minimum Z {m},Maximum Z {m},Ceiling Height {m},Volume {m3},Zone Inside Convection Algorithm {Simple-Detailed-CeilingDiffuser-TrombeWall},Zone Outside Convection Algorithm {Simple-Detailed-Tarp-MoWitt-DOE-2-BLAST}, Floor Area {m2},Exterior Gross Wall Area {m2},Exterior Net Wall Area {m2},Exterior Window Area {m2}, Number of Surfaces, Number of SubSurfaces, Number of Shading SubSurfaces,  Part of Total Building Area
 Zone Information, CORRIDORFLR1 ZN,0.0,0.00,0.00,0.00,-26.68,-9.43,1.68,1,1,1,-54.91,-4.87E-002,-18.34,-4.88E-002,0.00,3.35,3.35,504.62,TARP,TARP,150.51,32.70,22.89,9.82,29,3,2,Yes
 Zone Information, CORRIDORFLR2 ZN,0.0,0.00,0.00,0.00,-26.88,-10.72,4.72,1,1,1,-54.91,-4.87E-002,-18.34,-8.28,3.35,6.10,2.74,344.05,TARP,TARP,125.42,18.39,15.77,2.62,22,2,0,Yes
 Zone Information, CORRIDORFLR3 ZN,0.0,0.00,0.00,0.00,-26.88,-10.72,7.47,1,1,1,-54.91,-4.87E-002,-18.34,-8.28,6.10,8.84,2.74,344.05,TARP,TARP,125.42,18.39,15.77,2.62,22,2,0,Yes
 Zone Information, CORRIDORFLR4 ZN,0.0,0.00,0.00,0.00,-26.88,-10.72,10.21,1,1,1,-54.91,-4.87E-002,-18.34,-8.28,8.84,11.58,2.74,344.05,TARP,TARP,125.42,18.39,15.77,2.62,22,2,0,Yes
 Zone Information, ELEVATORCOREFLR1 ZN,0.0,0.00,0.00,0.00,-27.79,-14.22,1.68,1,1,1,-28.70,-26.87,-18.34,-10.11,0.00,3.35,3.35,50.46,TARP,TARP,15.05,6.13,6.13,0.00,6,0,0,Yes
 Zone Information, ELEVATORCOREFLR2 ZN,0.0,0.00,0.00,0.00,-27.79,-14.22,4.72,1,1,1,-28.70,-26.87,-18.34,-10.11,3.35,6.10,2.74,41.29,TARP,TARP,15.05,5.02,5.02,0.00,6,0,0,Yes
 Zone Information, ELEVATORCOREFLR3 ZN,0.0,0.00,0.00,0.00,-27.79,-14.22,7.47,1,1,1,-28.70,-26.87,-18.34,-10.11,6.10,8.84,2.74,41.29,TARP,TARP,15.05,5.02,5.02,0.00,6,0,0,Yes
 Zone Information, ELEVATORCOREFLR4 ZN,0.0,0.00,0.00,0.00,-27.79,-14.22,10.21,1,1,1,-28.70,-26.87,-18.34,-10.11,8.84,11.58,2.74,41.29,TARP,TARP,15.05,5.02,5.02,0.00,6,0,0,Yes
 Zone Information, EMPLOYEELOUNGEFLR1 ZN,0.0,0.00,0.00,0.00,-42.57,-14.22,1.68,1,1,1,-44.55,-40.59,-18.34,-10.11,0.00,3.35,3.35,109.33,TARP,TARP,32.61,13.29,11.64,1.65,6,1,0,Yes
 Zone Information, EXERCISECENTERFLR1 ZN,0.0,0.00,0.00,0.00,-21.84,-14.22,1.68,1,1,1,-23.82,-19.86,-18.34,-10.11,0.00,3.35,3.35,109.33,TARP,TARP,32.61,13.29,11.64,1.65,6,1,0,Yes
 Zone Information, FRONTLOUNGEFLR1 ZN,0.0,0.00,0.00,0.00,-9.95,-4.16,1.68,1,1,1,-19.86,-4.87E-002,-8.28,-4.88E-002,0.00,3.35,3.35,546.70,TARP,TARP,163.06,94.02,79.19,14.83,7,5,0,Yes
 Zone Information, FRONTOFFICEFLR1 ZN,0.0,0.00,0.00,0.00,-11.94,-14.22,1.68,1,1,1,-19.86,-4.01,-18.34,-10.11,0.00,3.35,3.35,437.33,TARP,TARP,130.44,53.14,46.56,6.58,7,4,0,Yes
 Zone Information, FRONTSTAIRSFLR1 ZN,0.0,0.00,0.00,0.00,-1.27,-14.22,1.68,1,1,1,-2.49,-4.87E-002,-18.34,-10.11,0.00,3.35,3.35,67.28,TARP,TARP,20.07,35.77,35.77,0.00,6,0,0,Yes
 Zone Information, FRONTSTAIRSFLR2 ZN,0.0,0.00,0.00,0.00,-1.27,-14.22,4.72,1,1,1,-2.49,-4.87E-002,-18.34,-10.11,3.35,6.10,2.74,55.05,TARP,TARP,20.07,29.26,29.26,0.00,6,0,0,Yes
 Zone Information, FRONTSTAIRSFLR3 ZN,0.0,0.00,0.00,0.00,-1.27,-14.22,7.47,1,1,1,-2.49,-4.87E-002,-18.34,-10.11,6.10,8.84,2.74,55.05,TARP,TARP,20.07,29.26,29.26,0.00,6,0,0,Yes
 Zone Information, FRONTSTAIRSFLR4 ZN,0.0,0.00,0.00,0.00,-1.27,-14.22,10.21,1,1,1,-2.49,-4.87E-002,-18.34,-10.11,8.84,11.58,2.74,55.05,TARP,TARP,20.07,29.26,29.26,0.00,6,0,0,Yes
 Zone Information, FRONTSTORAGEFLR1 ZN,0.0,0.00,0.00,0.00,-3.25,-14.22,1.68,1,1,1,-4.01,-2.49,-18.34,-10.11,0.00,3.35,3.35,42.05,TARP,TARP,12.54,5.11,5.11,0.00,6,0,0,Yes
 Zone Information, FRONTSTORAGEFLR2 ZN,0.0,0.00,0.00,0.00,-3.25,-14.22,4.72,1,1,1,-4.01,-2.49,-18.34,-10.11,3.35,6.10,2.74,34.40,TARP,TARP,12.54,4.18,4.18,0.00,6,0,0,Yes
 Zone Information, FRONTSTORAGEFLR3 ZN,0.0,0.00,0.00,0.00,-3.25,-14.22,7.47,1,1,1,-4.01,-2.49,-18.34,-10.11,6.10,8.84,2.74,34.40,TARP,TARP,12.54,4.18,4.18,0.00,6,0,0,Yes
 Zone Information, FRONTSTORAGEFLR4 ZN,0.0,0.00,0.00,0.00,-3.25,-14.22,10.21,1,1,1,-4.01,-2.49,-18.34,-10.11,8.84,11.58,2.74,34.40,TARP,TARP,12.54,4.18,4.18,0.00,6,0,0,Yes
 Zone Information, GUESTROOM101 ZN,0.0,0.00,0.00,0.00,-42.57,-4.16,1.68,1,1,1,-44.55,-40.59,-8.28,-4.88E-002,0.00,3.35,3.35,109.34,TARP,TARP,32.61,13.29,11.64,1.65,6,1,0,Yes
 Zone Information, GUESTROOM102 ZN,0.0,0.00,0.00,0.00,-46.53,-4.16,1.68,1,1,1,-48.51,-44.55,-8.28,-4.88E-002,0.00,3.35,3.35,109.34,TARP,TARP,32.61,13.29,11.64,1.65,6,1,0,Yes
 Zone Information, GUESTROOM103 ZN,0.0,0.00,0.00,0.00,-50.49,-4.16,1.68,1,1,1,-52.47,-48.51,-8.28,-4.88E-002,0.00,3.35,3.35,109.34,TARP,TARP,32.61,13.29,11.64,1.65,6,1,0,Yes
 Zone Information, GUESTROOM104 ZN,0.0,0.00,0.00,0.00,-50.49,-14.22,1.68,1,1,1,-52.47,-48.51,-18.34,-10.11,0.00,3.35,3.35,109.33,TARP,TARP,32.61,13.29,11.64,1.65,6,1,0,Yes
 Zone Information, GUESTROOM105 ZN,0.0,0.00,0.00,0.00,-46.53,-14.22,1.68,1,1,1,-48.51,-44.55,-18.34,-10.11,0.00,3.35,3.35,109.33,TARP,TARP,32.61,13.29,11.64,1.65,6,1,0,Yes
 Zone Information, GUESTROOM201 ZN,0.0,0.00,0.00,0.00,-2.03,-4.16,4.72,1,1,1,-4.01,-4.87E-002,-8.28,-4.88E-002,3.35,6.10,2.74,89.46,TARP,TARP,32.61,33.45,31.80,1.65,6,1,0,Yes
 Zone Information, GUESTROOM202_205 ZN,0.0,0.00,0.00,0.00,-11.94,-4.16,4.72,1,1,1,-19.86,-4.01,-8.28,-4.88E-002,3.35,6.10,2.74,357.84,TARP,TARP,130.45,43.48,36.90,6.58,6,4,0,Yes
 Zone Information, GUESTROOM206_208 ZN,0.0,0.00,0.00,0.00,-26.26,-4.16,4.72,1,1,1,-32.66,-19.86,-8.28,-4.88E-002,3.35,6.10,2.74,289.02,TARP,TARP,105.36,35.12,28.42,6.70,8,3,0,Yes
 Zone Information, GUESTROOM209_212 ZN,0.0,0.00,0.00,0.00,-40.59,-4.16,4.72,1,1,1,-48.51,-32.66,-8.28,-4.88E-002,3.35,6.10,2.74,357.84,TARP,TARP,130.45,43.48,36.90,6.58,9,4,0,Yes
 Zone Information, GUESTROOM213 ZN,0.0,0.00,0.00,0.00,-50.49,-4.16,4.72,1,1,1,-52.47,-48.51,-8.28,-4.88E-002,3.35,6.10,2.74,89.46,TARP,TARP,32.61,10.87,9.22,1.65,6,1,0,Yes
 Zone Information, GUESTROOM214 ZN,0.0,0.00,0.00,0.00,-50.49,-14.22,4.72,1,1,1,-52.47,-48.51,-18.34,-10.11,3.35,6.10,2.74,89.45,TARP,TARP,32.61,10.87,9.22,1.65,6,1,0,Yes
 Zone Information, GUESTROOM215_218 ZN,0.0,0.00,0.00,0.00,-40.59,-14.22,4.72,1,1,1,-48.51,-32.66,-18.34,-10.11,3.35,6.10,2.74,357.81,TARP,TARP,130.44,43.48,36.90,6.58,8,4,0,Yes
 Zone Information, GUESTROOM219 ZN,0.0,0.00,0.00,0.00,-30.68,-14.22,4.72,1,1,1,-32.66,-28.70,-18.34,-10.11,3.35,6.10,2.74,89.45,TARP,TARP,32.61,10.87,9.22,1.65,6,1,0,Yes
 Zone Information, GUESTROOM220_223 ZN,0.0,0.00,0.00,0.00,-15.90,-14.22,4.72,1,1,1,-23.82,-7.97,-18.34,-10.11,3.35,6.10,2.74,357.81,TARP,TARP,130.44,43.48,36.90,6.58,7,4,0,Yes
 Zone Information, GUESTROOM224 ZN,0.0,0.00,0.00,0.00,-5.99,-14.22,4.72,1,1,1,-7.97,-4.01,-18.34,-10.11,3.35,6.10,2.74,89.45,TARP,TARP,32.61,10.87,9.22,1.65,6,1,0,Yes
 Zone Information, GUESTROOM301 ZN,0.0,0.00,0.00,0.00,-2.03,-4.16,7.47,1,1,1,-4.01,-4.87E-002,-8.28,-4.88E-002,6.10,8.84,2.74,89.46,TARP,TARP,32.61,33.45,31.80,1.65,6,1,0,Yes
 Zone Information, GUESTROOM302_305 ZN,0.0,0.00,0.00,0.00,-11.94,-4.16,7.47,1,1,1,-19.86,-4.01,-8.28,-4.88E-002,6.10,8.84,2.74,357.84,TARP,TARP,130.45,43.48,36.90,6.58,6,4,0,Yes
 Zone Information, GUESTROOM306_308 ZN,0.0,0.00,0.00,0.00,-26.26,-4.16,7.47,1,1,1,-32.66,-19.86,-8.28,-4.88E-002,6.10,8.84,2.74,289.02,TARP,TARP,105.36,35.12,28.42,6.70,6,3,0,Yes
 Zone Information, GUESTROOM309_312 ZN,0.0,0.00,0.00,0.00,-40.59,-4.16,7.47,1,1,1,-48.51,-32.66,-8.28,-4.88E-002,6.10,8.84,2.74,357.84,TARP,TARP,130.45,43.48,36.90,6.58,6,4,0,Yes
 Zone Information, GUESTROOM313 ZN,0.0,0.00,0.00,0.00,-50.49,-4.16,7.47,1,1,1,-52.47,-48.51,-8.28,-4.88E-002,6.10,8.84,2.74,89.46,TARP,TARP,32.61,10.87,9.22,1.65,6,1,0,Yes
 Zone Information, GUESTROOM314 ZN,0.0,0.00,0.00,0.00,-50.49,-14.22,7.47,1,1,1,-52.47,-48.51,-18.34,-10.11,6.10,8.84,2.74,89.45,TARP,TARP,32.61,10.87,9.22,1.65,6,1,0,Yes
 Zone Information, GUESTROOM315_318 ZN,0.0,0.00,0.00,0.00,-40.59,-14.22,7.47,1,1,1,-48.51,-32.66,-18.34,-10.11,6.10,8.84,2.74,357.81,TARP,TARP,130.44,43.48,36.90,6.58,6,4,0,Yes
 Zone Information, GUESTROOM319 ZN,0.0,0.00,0.00,0.00,-30.68,-14.22,7.47,1,1,1,-32.66,-28.70,-18.34,-10.11,6.10,8.84,2.74,89.45,TARP,TARP,32.61,10.87,9.22,1.65,6,1,0,Yes
 Zone Information, GUESTROOM320_323 ZN,0.0,0.00,0.00,0.00,-15.90,-14.22,7.47,1,1,1,-23.82,-7.97,-18.34,-10.11,6.10,8.84,2.74,357.81,TARP,TARP,130.44,43.48,36.90,6.58,6,4,0,Yes
 Zone Information, GUESTROOM324 ZN,0.0,0.00,0.00,0.00,-5.99,-14.22,7.47,1,1,1,-7.97,-4.01,-18.34,-10.11,6.10,8.84,2.74,89.45,TARP,TARP,32.61,10.87,9.22,1.65,6,1,0,Yes
 Zone Information, GUESTROOM401 ZN,0.0,0.00,0.00,0.00,-2.03,-4.16,10.21,1,1,1,-4.01,-4.87E-002,-8.28,-4.88E-002,8.84,11.58,2.74,89.46,TARP,TARP,32.61,33.45,31.80,1.65,6,1,0,Yes
 Zone Information, GUESTROOM402_405 ZN,0.0,0.00,0.00,0.00,-11.94,-4.16,10.21,1,1,1,-19.86,-4.01,-8.28,-4.88E-002,8.84,11.58,2.74,357.84,TARP,TARP,130.45,43.48,36.90,6.58,6,4,0,Yes
 Zone Information, GUESTROOM406_408 ZN,0.0,0.00,0.00,0.00,-26.26,-4.16,10.21,1,1,1,-32.66,-19.86,-8.28,-4.88E-002,8.84,11.58,2.74,289.02,TARP,TARP,105.36,35.12,28.42,6.70,6,3,0,Yes
 Zone Information, GUESTROOM409_412 ZN,0.0,0.00,0.00,0.00,-40.59,-4.16,10.21,1,1,1,-48.51,-32.66,-8.28,-4.88E-002,8.84,11.58,2.74,357.84,TARP,TARP,130.45,43.48,36.90,6.58,6,4,0,Yes
 Zone Information, GUESTROOM413 ZN,0.0,0.00,0.00,0.00,-50.49,-4.16,10.21,1,1,1,-52.47,-48.51,-8.28,-4.88E-002,8.84,11.58,2.74,89.46,TARP,TARP,32.61,10.87,9.22,1.65,6,1,0,Yes
 Zone Information, GUESTROOM414 ZN,0.0,0.00,0.00,0.00,-50.49,-14.22,10.21,1,1,1,-52.47,-48.51,-18.34,-10.11,8.84,11.58,2.74,89.45,TARP,TARP,32.61,10.87,9.22,1.65,6,1,0,Yes
 Zone Information, GUESTROOM415_418 ZN,0.0,0.00,0.00,0.00,-40.59,-14.22,10.21,1,1,1,-48.51,-32.66,-18.34,-10.11,8.84,11.58,2.74,357.81,TARP,TARP,130.44,43.48,36.90,6.58,6,4,0,Yes
 Zone Information, GUESTROOM419 ZN,0.0,0.00,0.00,0.00,-30.68,-14.22,10.21,1,1,1,-32.66,-28.70,-18.34,-10.11,8.84,11.58,2.74,89.45,TARP,TARP,32.61,10.87,9.22,1.65,6,1,0,Yes
 Zone Information, GUESTROOM420_423 ZN,0.0,0.00,0.00,0.00,-15.90,-14.22,10.21,1,1,1,-23.82,-7.97,-18.34,-10.11,8.84,11.58,2.74,357.81,TARP,TARP,130.44,43.48,36.90,6.58,6,4,0,Yes
 Zone Information, GUESTROOM424 ZN,0.0,0.00,0.00,0.00,-5.99,-14.22,10.21,1,1,1,-7.97,-4.01,-18.34,-10.11,8.84,11.58,2.74,89.45,TARP,TARP,32.61,10.87,9.22,1.65,6,1,0,Yes
 Zone Information, LAUNDRYROOMFLR1 ZN,0.0,0.00,0.00,0.00,-34.64,-14.22,1.68,1,1,1,-40.59,-28.70,-18.34,-10.11,0.00,3.35,3.35,327.99,TARP,TARP,97.83,39.86,34.92,4.94,7,3,0,Yes
 Zone Information, MECHANICALROOMFLR1 ZN,0.0,0.00,0.00,0.00,-38.61,-4.16,1.68,1,1,1,-40.59,-36.62,-8.28,-4.88E-002,0.00,3.35,3.35,109.34,TARP,TARP,32.61,13.29,13.29,0.00,6,0,0,Yes
 Zone Information, MEETINGROOMFLR1 ZN,0.0,0.00,0.00,0.00,-31.75,-4.16,1.68,1,1,1,-36.62,-26.87,-8.28,-4.88E-002,0.00,3.35,3.35,269.14,TARP,TARP,80.27,32.70,27.77,4.94,7,3,0,Yes
 Zone Information, REARSTAIRSFLR1 ZN,0.0,0.00,0.00,0.00,-53.69,-14.22,1.68,1,1,1,-54.91,-52.47,-18.34,-10.11,0.00,3.35,3.35,67.30,TARP,TARP,20.07,35.77,35.77,0.00,6,0,0,Yes
 Zone Information, REARSTAIRSFLR2 ZN,0.0,0.00,0.00,0.00,-53.69,-14.22,4.72,1,1,1,-54.91,-52.47,-18.34,-10.11,3.35,6.10,2.74,55.06,TARP,TARP,20.07,29.27,29.27,0.00,6,0,0,Yes
 Zone Information, REARSTAIRSFLR3 ZN,0.0,0.00,0.00,0.00,-53.69,-14.22,7.47,1,1,1,-54.91,-52.47,-18.34,-10.11,6.10,8.84,2.74,55.06,TARP,TARP,20.07,29.27,29.27,0.00,6,0,0,Yes
 Zone Information, REARSTAIRSFLR4 ZN,0.0,0.00,0.00,0.00,-53.69,-14.22,10.21,1,1,1,-54.91,-52.47,-18.34,-10.11,8.84,11.58,2.74,55.06,TARP,TARP,20.07,29.27,29.27,0.00,6,0,0,Yes
 Zone Information, REARSTORAGEFLR1 ZN,0.0,0.00,0.00,0.00,-53.69,-4.16,1.68,1,1,1,-54.91,-52.47,-8.28,-4.88E-002,0.00,3.35,3.35,67.30,TARP,TARP,20.07,35.77,35.77,0.00,6,0,0,Yes
 Zone Information, REARSTORAGEFLR2 ZN,0.0,0.00,0.00,0.00,-53.69,-4.16,4.72,1,1,1,-54.91,-52.47,-8.28,-4.88E-002,3.35,6.10,2.74,55.07,TARP,TARP,20.07,29.27,29.27,0.00,6,0,0,Yes
 Zone Information, REARSTORAGEFLR3 ZN,0.0,0.00,0.00,0.00,-53.69,-4.16,7.47,1,1,1,-54.91,-52.47,-8.28,-4.88E-002,6.10,8.84,2.74,55.07,TARP,TARP,20.07,29.27,29.27,0.00,6,0,0,Yes
 Zone Information, REARSTORAGEFLR4 ZN,0.0,0.00,0.00,0.00,-53.69,-4.16,10.21,1,1,1,-54.91,-52.47,-8.28,-4.88E-002,8.84,11.58,2.74,55.07,TARP,TARP,20.07,29.27,29.27,0.00,6,0,0,Yes
 Zone Information, RESTROOMFLR1 ZN,0.0,0.00,0.00,0.00,-21.84,-4.16,1.68,1,1,1,-23.82,-19.86,-8.28,-4.88E-002,0.00,3.35,3.35,109.34,TARP,TARP,32.61,13.29,13.29,0.00,6,0,0,Yes
! <Zone Internal Gains Nominal>,Zone Name, Floor Area {m2},# Occupants,Area per Occupant {m2/person},Occupant per Area {person/m2},Interior Lighting {W/m2},Electric Load {W/m2},Gas Load {W/m2},Other Load {W/m2},Hot Water Eq {W/m2},Steam Equipment {W/m2},Sum Loads per Area {W/m2},Outdoor Controlled Baseboard Heat
 Zone Internal Gains Nominal, CORRIDORFLR1 ZN,150.51,1.5,99.964,1.000E-002,7.103,0.000,0.000,0.000,0.000,0.000,7.103,No
 Zone Internal Gains Nominal, CORRIDORFLR2 ZN,125.42,1.3,99.964,1.000E-002,7.103,0.000,0.000,0.000,0.000,0.000,7.103,No
 Zone Internal Gains Nominal, CORRIDORFLR3 ZN,125.42,1.3,99.964,1.000E-002,7.103,0.000,0.000,0.000,0.000,0.000,7.103,No
 Zone Internal Gains Nominal, CORRIDORFLR4 ZN,125.42,1.3,99.964,1.000E-002,7.103,0.000,0.000,0.000,0.000,0.000,7.103,No
 Zone Internal Gains Nominal, ELEVATORCOREFLR1 ZN,15.05,1.5,9.996,0.100,7.003,1.000,0.000,0.000,0.000,0.000,8.003,No
 Zone Internal Gains Nominal, ELEVATORCOREFLR2 ZN,15.05,1.5,9.996,0.100,7.003,1.000,0.000,0.000,0.000,0.000,8.003,No
 Zone Internal Gains Nominal, ELEVATORCOREFLR3 ZN,15.05,1.5,9.996,0.100,7.003,1.000,0.000,0.000,0.000,0.000,8.003,No
 Zone Internal Gains Nominal, ELEVATORCOREFLR4 ZN,15.05,1.5,9.996,0.100,7.003,1.000,0.000,0.000,0.000,0.000,8.003,No
 Zone Internal Gains Nominal, EMPLOYEELOUNGEFLR1 ZN,32.61,3.3,9.996,0.100,7.903,1.000,0.000,0.000,0.000,0.000,8.903,No
 Zone Internal Gains Nominal, EXERCISECENTERFLR1 ZN,32.61,6.5,4.998,0.200,7.803,1.000,0.000,0.000,0.000,0.000,8.803,No
 Zone Internal Gains Nominal, FRONTLOUNGEFLR1 ZN,163.06,16.3,9.996,0.100,11.504,2.501,0.000,0.000,0.000,0.000,14.005,No
 Zone Internal Gains Nominal, FRONTOFFICEFLR1 ZN,130.44,6.5,19.993,5.002E-002,12.004,7.503,0.000,0.000,0.000,0.000,19.507,No
 Zone Internal Gains Nominal, FRONTSTAIRSFLR1 ZN,20.07,0.1,199.927,5.002E-003,7.403,0.000,0.000,0.000,0.000,0.000,7.403,No
 Zone Internal Gains Nominal, FRONTSTAIRSFLR2 ZN,20.07,0.1,199.927,5.002E-003,7.403,0.000,0.000,0.000,0.000,0.000,7.403,No
 Zone Internal Gains Nominal, FRONTSTAIRSFLR3 ZN,20.07,0.1,199.927,5.002E-003,7.403,0.000,0.000,0.000,0.000,0.000,7.403,No
 Zone Internal Gains Nominal, FRONTSTAIRSFLR4 ZN,20.07,0.1,199.927,5.002E-003,7.403,0.000,0.000,0.000,0.000,0.000,7.403,No
 Zone Internal Gains Nominal, FRONTSTORAGEFLR1 ZN,12.54,0.1,99.964,1.000E-002,6.802,0.000,0.000,0.000,0.000,0.000,6.802,No
 Zone Internal Gains Nominal, FRONTSTORAGEFLR2 ZN,12.54,0.1,99.964,1.000E-002,6.802,0.000,0.000,0.000,0.000,0.000,6.802,No
 Zone Internal Gains Nominal, FRONTSTORAGEFLR3 ZN,12.54,0.1,99.964,1.000E-002,6.802,0.000,0.000,0.000,0.000,0.000,6.802,No
 Zone Internal Gains Nominal, FRONTSTORAGEFLR4 ZN,12.54,0.1,99.964,1.000E-002,6.802,0.000,0.000,0.000,0.000,0.000,6.802,No
 Zone Internal Gains Nominal, GUESTROOM101 ZN,32.61,1.3,24.991,4.001E-002,5.102,2.501,0.000,0.000,0.000,0.000,7.603,No
 Zone Internal Gains Nominal, GUESTROOM102 ZN,32.61,1.3,24.991,4.001E-002,5.102,2.501,0.000,0.000,0.000,0.000,7.603,No
 Zone Internal Gains Nominal, GUESTROOM103 ZN,32.61,1.3,24.991,4.001E-002,5.102,2.501,0.000,0.000,0.000,0.000,7.603,No
 Zone Internal Gains Nominal, GUESTROOM104 ZN,32.61,1.3,24.991,4.001E-002,5.102,2.501,0.000,0.000,0.000,0.000,7.603,No
 Zone Internal Gains Nominal, GUESTROOM105 ZN,32.61,1.3,24.991,4.001E-002,5.102,2.501,0.000,0.000,0.000,0.000,7.603,No
 Zone Internal Gains Nominal, GUESTROOM201 ZN,32.61,1.3,24.991,4.001E-002,5.102,2.501,0.000,0.000,0.000,0.000,7.603,No
 Zone Internal Gains Nominal, GUESTROOM202_205 ZN,130.45,5.2,24.991,4.001E-002,5.102,2.501,0.000,0.000,0.000,0.000,7.603,No
 Zone Internal Gains Nominal, GUESTROOM206_208 ZN,105.36,4.2,24.991,4.001E-002,5.102,2.501,0.000,0.000,0.000,0.000,7.603,No
 Zone Internal Gains Nominal, GUESTROOM209_212 ZN,130.45,5.2,24.991,4.001E-002,5.102,2.501,0.000,0.000,0.000,0.000,7.603,No
 Zone Internal Gains Nominal, GUESTROOM213 ZN,32.61,1.3,24.991,4.001E-002,5.102,2.501,0.000,0.000,0.000,0.000,7.603,No
 Zone Internal Gains Nominal, GUESTROOM214 ZN,32.61,1.3,24.991,4.001E-002,5.102,2.501,0.000,0.000,0.000,0.000,7.603,No
 Zone Internal Gains Nominal, GUESTROOM215_218 ZN,130.44,5.2,24.991,4.001E-002,5.102,2.501,0.000,0.000,0.000,0.000,7.603,No
 Zone Internal Gains Nominal, GUESTROOM219 ZN,32.61,1.3,24.991,4.001E-002,5.102,2.501,0.000,0.000,0.000,0.000,7.603,No
 Zone Internal Gains Nominal, GUESTROOM220_223 ZN,130.44,5.2,24.991,4.001E-002,5.102,2.501,0.000,0.000,0.000,0.000,7.603,No
 Zone Internal Gains Nominal, GUESTROOM224 ZN,32.61,1.3,24.991,4.001E-002,5.102,2.501,0.000,0.000,0.000,0.000,7.603,No
 Zone Internal Gains Nominal, GUESTROOM301 ZN,32.61,1.3,24.991,4.001E-002,5.102,2.501,0.000,0.000,0.000,0.000,7.603,No
 Zone Internal Gains Nominal, GUESTROOM302_305 ZN,130.45,5.2,24.991,4.001E-002,5.102,2.501,0.000,0.000,0.000,0.000,7.603,No
 Zone Internal Gains Nominal, GUESTROOM306_308 ZN,105.36,4.2,24.991,4.001E-002,5.102,2.501,0.000,0.000,0.000,0.000,7.603,No
 Zone Internal Gains Nominal, GUESTROOM309_312 ZN,130.45,5.2,24.991,4.001E-002,5.102,2.501,0.000,0.000,0.000,0.000,7.603,No
 Zone Internal Gains Nominal, GUESTROOM313 ZN,32.61,1.3,24.991,4.001E-002,5.102,2.501,0.000,0.000,0.000,0.000,7.603,No
 Zone Internal Gains Nominal, GUESTROOM314 ZN,32.61,1.3,24.991,4.001E-002,5.102,2.501,0.000,0.000,0.000,0.000,7.603,No
 Zone Internal Gains Nominal, GUESTROOM315_318 ZN,130.44,5.2,24.991,4.001E-002,5.102,2.501,0.000,0.000,0.000,0.000,7.603,No
 Zone Internal Gains Nominal, GUESTROOM319 ZN,32.61,1.3,24.991,4.001E-002,5.102,2.501,0.000,0.000,0.000,0.000,7.603,No
 Zone Internal Gains Nominal, GUESTROOM320_323 ZN,130.44,5.2,24.991,4.001E-002,5.102,2.501,0.000,0.000,0.000,0.000,7.603,No
 Zone Internal Gains Nominal, GUESTROOM324 ZN,32.61,1.3,24.991,4.001E-002,5.102,2.501,0.000,0.000,0.000,0.000,7.603,No
 Zone Internal Gains Nominal, GUESTROOM401 ZN,32.61,1.3,24.991,4.001E-002,5.102,2.501,0.000,0.000,0.000,0.000,7.603,No
 Zone Internal Gains Nominal, GUESTROOM402_405 ZN,130.45,5.2,24.991,4.001E-002,5.102,2.501,0.000,0.000,0.000,0.000,7.603,No
 Zone Internal Gains Nominal, GUESTROOM406_408 ZN,105.36,4.2,24.991,4.001E-002,5.102,2.501,0.000,0.000,0.000,0.000,7.603,No
 Zone Internal Gains Nominal, GUESTROOM409_412 ZN,130.45,5.2,24.991,4.001E-002,5.102,2.501,0.000,0.000,0.000,0.000,7.603,No
 Zone Internal Gains Nominal, GUESTROOM413 ZN,32.61,1.3,24.991,4.001E-002,5.102,2.501,0.000,0.000,0.000,0.000,7.603,No
 Zone Internal Gains Nominal, GUESTROOM414 ZN,32.61,1.3,24.991,4.001E-002,5.102,2.501,0.000,0.000,0.000,0.000,7.603,No
 Zone Internal Gains Nominal, GUESTROOM415_418 ZN,130.44,5.2,24.991,4.001E-002,5.102,2.501,0.000,0.000,0.000,0.000,7.603,No
 Zone Internal Gains Nominal, GUESTROOM419 ZN,32.61,1.3,24.991,4.001E-002,5.102,2.501,0.000,0.000,0.000,0.000,7.603,No
 Zone Internal Gains Nominal, GUESTROOM420_423 ZN,130.44,5.2,24.991,4.001E-002,5.102,2.501,0.000,0.000,0.000,0.000,7.603,No
 Zone Internal Gains Nominal, GUESTROOM424 ZN,32.61,1.3,24.991,4.001E-002,5.102,2.501,0.000,0.000,0.000,0.000,7.603,No
 Zone Internal Gains Nominal, LAUNDRYROOMFLR1 ZN,97.83,1.0,99.964,1.000E-002,6.802,0.000,0.000,0.000,0.000,0.000,6.802,No
 Zone Internal Gains Nominal, MECHANICALROOMFLR1 ZN,32.61,0.2,199.927,5.002E-003,4.602,1.000,0.000,0.000,0.000,0.000,5.602,No
 Zone Internal Gains Nominal, MEETINGROOMFLR1 ZN,80.27,0.4,199.927,5.002E-003,4.602,1.000,0.000,0.000,0.000,0.000,5.602,No
 Zone Internal Gains Nominal, REARSTAIRSFLR1 ZN,20.07,0.1,199.927,5.002E-003,7.403,0.000,0.000,0.000,0.000,0.000,7.403,No
 Zone Internal Gains Nominal, REARSTAIRSFLR2 ZN,20.07,0.1,199.927,5.002E-003,7.403,0.000,0.000,0.000,0.000,0.000,7.403,No
 Zone Internal Gains Nominal, REARSTAIRSFLR3 ZN,20.07,0.1,199.927,5.002E-003,7.403,0.000,0.000,0.000,0.000,0.000,7.403,No
 Zone Internal Gains Nominal, REARSTAIRSFLR4 ZN,20.07,0.1,199.927,5.002E-003,7.403,0.000,0.000,0.000,0.000,0.000,7.403,No
 Zone Internal Gains Nominal, REARSTORAGEFLR1 ZN,20.07,0.2,99.964,1.000E-002,6.802,0.000,0.000,0.000,0.000,0.000,6.802,No
 Zone Internal Gains Nominal, REARSTORAGEFLR2 ZN,20.07,0.2,99.964,1.000E-002,6.802,0.000,0.000,0.000,0.000,0.000,6.802,No
 Zone Internal Gains Nominal, REARSTORAGEFLR3 ZN,20.07,0.2,99.964,1.000E-002,6.802,0.000,0.000,0.000,0.000,0.000,6.802,No
 Zone Internal Gains Nominal, REARSTORAGEFLR4 ZN,20.07,0.2,99.964,1.000E-002,6.802,0.000,0.000,0.000,0.000,0.000,6.802,No
 Zone Internal Gains Nominal, RESTROOMFLR1 ZN,32.61,1.1,29.989,3.335E-002,10.504,1.000,0.000,0.000,0.000,0.000,11.504,No
! <People Internal Gains Nominal>,Name,Schedule Name,Zone Name,Zone Floor Area {m2},# Zone Occupants,Number of People {},People/Floor Area {person/m2},Floor Area per person {m2/person},Fraction Radiant,Fraction Convected,Sensible Fraction Calculation,Activity level,ASHRAE 55 Warnings,Carbon Dioxide Generation Rate,Nominal Minimum Number of People,Nominal Maximum Number of People
 People Internal Gains Nominal, CORRIDORFLR1 ZN SPACE FUNCTION CORRIDOR/TRANSITION AREA OTHER-SCH-F PEOPLE,NECB-F-OCCUPANCY,CORRIDORFLR1 ZN,150.51,1.5,1.5,1.000E-002,99.964,0.300,0.700,AutoCalculate,NECB-ACTIVITY,No,3.8200E-008,0,1
 People Internal Gains Nominal, CORRIDORFLR2 ZN SPACE FUNCTION CORRIDOR/TRANSITION AREA OTHER-SCH-F PEOPLE,NECB-F-OCCUPANCY,CORRIDORFLR2 ZN,125.42,1.3,1.3,1.000E-002,99.964,0.300,0.700,AutoCalculate,NECB-ACTIVITY,No,3.8200E-008,0,1
 People Internal Gains Nominal, CORRIDORFLR3 ZN SPACE FUNCTION CORRIDOR/TRANSITION AREA OTHER-SCH-F PEOPLE,NECB-F-OCCUPANCY,CORRIDORFLR3 ZN,125.42,1.3,1.3,1.000E-002,99.964,0.300,0.700,AutoCalculate,NECB-ACTIVITY,No,3.8200E-008,0,1
 People Internal Gains Nominal, CORRIDORFLR4 ZN SPACE FUNCTION CORRIDOR/TRANSITION AREA OTHER-SCH-F PEOPLE,NECB-F-OCCUPANCY,CORRIDORFLR4 ZN,125.42,1.3,1.3,1.000E-002,99.964,0.300,0.700,AutoCalculate,NECB-ACTIVITY,No,3.8200E-008,0,1
 People Internal Gains Nominal, MECHANICALROOMFLR1 ZN SPACE FUNCTION ELECTRICAL/MECHANICAL ROOM-SCH-F PEOPLE,NECB-F-OCCUPANCY,MECHANICALROOMFLR1 ZN,32.61,0.2,0.2,5.002E-003,199.927,0.300,0.700,AutoCalculate,NECB-ACTIVITY,No,3.8200E-008,2.E-002,0
 People Internal Gains Nominal, MEETINGROOMFLR1 ZN SPACE FUNCTION ELECTRICAL/MECHANICAL ROOM-SCH-F PEOPLE,NECB-F-OCCUPANCY,MEETINGROOMFLR1 ZN,80.27,0.4,0.4,5.002E-003,199.927,0.300,0.700,AutoCalculate,NECB-ACTIVITY,No,3.8200E-008,6.E-002,0
 People Internal Gains Nominal, GUESTROOM101 ZN SPACE FUNCTION GUEST ROOM PEOPLE,NECB-F-OCCUPANCY,GUESTROOM101 ZN,32.61,1.3,1.3,4.001E-002,24.991,0.300,0.700,AutoCalculate,NECB-ACTIVITY,No,3.8200E-008,0,1
 People Internal Gains Nominal, GUESTROOM102 ZN SPACE FUNCTION GUEST ROOM PEOPLE,NECB-F-OCCUPANCY,GUESTROOM102 ZN,32.61,1.3,1.3,4.001E-002,24.991,0.300,0.700,AutoCalculate,NECB-ACTIVITY,No,3.8200E-008,0,1
 People Internal Gains Nominal, GUESTROOM103 ZN SPACE FUNCTION GUEST ROOM PEOPLE,NECB-F-OCCUPANCY,GUESTROOM103 ZN,32.61,1.3,1.3,4.001E-002,24.991,0.300,0.700,AutoCalculate,NECB-ACTIVITY,No,3.8200E-008,0,1
 People Internal Gains Nominal, GUESTROOM104 ZN SPACE FUNCTION GUEST ROOM PEOPLE,NECB-F-OCCUPANCY,GUESTROOM104 ZN,32.61,1.3,1.3,4.001E-002,24.991,0.300,0.700,AutoCalculate,NECB-ACTIVITY,No,3.8200E-008,0,1
 People Internal Gains Nominal, GUESTROOM105 ZN SPACE FUNCTION GUEST ROOM PEOPLE,NECB-F-OCCUPANCY,GUESTROOM105 ZN,32.61,1.3,1.3,4.001E-002,24.991,0.300,0.700,AutoCalculate,NECB-ACTIVITY,No,3.8200E-008,0,1
 People Internal Gains Nominal, GUESTROOM201 ZN SPACE FUNCTION GUEST ROOM PEOPLE,NECB-F-OCCUPANCY,GUESTROOM201 ZN,32.61,1.3,1.3,4.001E-002,24.991,0.300,0.700,AutoCalculate,NECB-ACTIVITY,No,3.8200E-008,0,1
 People Internal Gains Nominal, GUESTROOM202_205 ZN SPACE FUNCTION GUEST ROOM PEOPLE,NECB-F-OCCUPANCY,GUESTROOM202_205 ZN,130.45,5.2,5.2,4.001E-002,24.991,0.300,0.700,AutoCalculate,NECB-ACTIVITY,No,3.8200E-008,1,3
 People Internal Gains Nominal, GUESTROOM206_208 ZN SPACE FUNCTION GUEST ROOM PEOPLE,NECB-F-OCCUPANCY,GUESTROOM206_208 ZN,105.36,4.2,4.2,4.001E-002,24.991,0.300,0.700,AutoCalculate,NECB-ACTIVITY,No,3.8200E-008,1,3
 People Internal Gains Nominal, GUESTROOM209_212 ZN SPACE FUNCTION GUEST ROOM PEOPLE,NECB-F-OCCUPANCY,GUESTROOM209_212 ZN,130.45,5.2,5.2,4.001E-002,24.991,0.300,0.700,AutoCalculate,NECB-ACTIVITY,No,3.8200E-008,1,3
 People Internal Gains Nominal, GUESTROOM213 ZN SPACE FUNCTION GUEST ROOM PEOPLE,NECB-F-OCCUPANCY,GUESTROOM213 ZN,32.61,1.3,1.3,4.001E-002,24.991,0.300,0.700,AutoCalculate,NECB-ACTIVITY,No,3.8200E-008,0,1
 People Internal Gains Nominal, GUESTROOM214 ZN SPACE FUNCTION GUEST ROOM PEOPLE,NECB-F-OCCUPANCY,GUESTROOM214 ZN,32.61,1.3,1.3,4.001E-002,24.991,0.300,0.700,AutoCalculate,NECB-ACTIVITY,No,3.8200E-008,0,1
 People Internal Gains Nominal, GUESTROOM215_218 ZN SPACE FUNCTION GUEST ROOM PEOPLE,NECB-F-OCCUPANCY,GUESTROOM215_218 ZN,130.44,5.2,5.2,4.001E-002,24.991,0.300,0.700,AutoCalculate,NECB-ACTIVITY,No,3.8200E-008,1,3
 People Internal Gains Nominal, GUESTROOM219 ZN SPACE FUNCTION GUEST ROOM PEOPLE,NECB-F-OCCUPANCY,GUESTROOM219 ZN,32.61,1.3,1.3,4.001E-002,24.991,0.300,0.700,AutoCalculate,NECB-ACTIVITY,No,3.8200E-008,0,1
 People Internal Gains Nominal, GUESTROOM220_223 ZN SPACE FUNCTION GUEST ROOM PEOPLE,NECB-F-OCCUPANCY,GUESTROOM220_223 ZN,130.44,5.2,5.2,4.001E-002,24.991,0.300,0.700,AutoCalculate,NECB-ACTIVITY,No,3.8200E-008,1,3
 People Internal Gains Nominal, GUESTROOM224 ZN SPACE FUNCTION GUEST ROOM PEOPLE,NECB-F-OCCUPANCY,GUESTROOM224 ZN,32.61,1.3,1.3,4.001E-002,24.991,0.300,0.700,AutoCalculate,NECB-ACTIVITY,No,3.8200E-008,0,1
 People Internal Gains Nominal, GUESTROOM301 ZN SPACE FUNCTION GUEST ROOM PEOPLE,NECB-F-OCCUPANCY,GUESTROOM301 ZN,32.61,1.3,1.3,4.001E-002,24.991,0.300,0.700,AutoCalculate,NECB-ACTIVITY,No,3.8200E-008,0,1
 People Internal Gains Nominal, GUESTROOM302_305 ZN SPACE FUNCTION GUEST ROOM PEOPLE,NECB-F-OCCUPANCY,GUESTROOM302_305 ZN,130.45,5.2,5.2,4.001E-002,24.991,0.300,0.700,AutoCalculate,NECB-ACTIVITY,No,3.8200E-008,1,3
 People Internal Gains Nominal, GUESTROOM306_308 ZN SPACE FUNCTION GUEST ROOM PEOPLE,NECB-F-OCCUPANCY,GUESTROOM306_308 ZN,105.36,4.2,4.2,4.001E-002,24.991,0.300,0.700,AutoCalculate,NECB-ACTIVITY,No,3.8200E-008,1,3
 People Internal Gains Nominal, GUESTROOM309_312 ZN SPACE FUNCTION GUEST ROOM PEOPLE,NECB-F-OCCUPANCY,GUESTROOM309_312 ZN,130.45,5.2,5.2,4.001E-002,24.991,0.300,0.700,AutoCalculate,NECB-ACTIVITY,No,3.8200E-008,1,3
 People Internal Gains Nominal, GUESTROOM313 ZN SPACE FUNCTION GUEST ROOM PEOPLE,NECB-F-OCCUPANCY,GUESTROOM313 ZN,32.61,1.3,1.3,4.001E-002,24.991,0.300,0.700,AutoCalculate,NECB-ACTIVITY,No,3.8200E-008,0,1
 People Internal Gains Nominal, GUESTROOM314 ZN SPACE FUNCTION GUEST ROOM PEOPLE,NECB-F-OCCUPANCY,GUESTROOM314 ZN,32.61,1.3,1.3,4.001E-002,24.991,0.300,0.700,AutoCalculate,NECB-ACTIVITY,No,3.8200E-008,0,1
 People Internal Gains Nominal, GUESTROOM315_318 ZN SPACE FUNCTION GUEST ROOM PEOPLE,NECB-F-OCCUPANCY,GUESTROOM315_318 ZN,130.44,5.2,5.2,4.001E-002,24.991,0.300,0.700,AutoCalculate,NECB-ACTIVITY,No,3.8200E-008,1,3
 People Internal Gains Nominal, GUESTROOM319 ZN SPACE FUNCTION GUEST ROOM PEOPLE,NECB-F-OCCUPANCY,GUESTROOM319 ZN,32.61,1.3,1.3,4.001E-002,24.991,0.300,0.700,AutoCalculate,NECB-ACTIVITY,No,3.8200E-008,0,1
 People Internal Gains Nominal, GUESTROOM320_323 ZN SPACE FUNCTION GUEST ROOM PEOPLE,NECB-F-OCCUPANCY,GUESTROOM320_323 ZN,130.44,5.2,5.2,4.001E-002,24.991,0.300,0.700,AutoCalculate,NECB-ACTIVITY,No,3.8200E-008,1,3
 People Internal Gains Nominal, GUESTROOM324 ZN SPACE FUNCTION GUEST ROOM PEOPLE,NECB-F-OCCUPANCY,GUESTROOM324 ZN,32.61,1.3,1.3,4.001E-002,24.991,0.300,0.700,AutoCalculate,NECB-ACTIVITY,No,3.8200E-008,0,1
 People Internal Gains Nominal, GUESTROOM401 ZN SPACE FUNCTION GUEST ROOM PEOPLE,NECB-F-OCCUPANCY,GUESTROOM401 ZN,32.61,1.3,1.3,4.001E-002,24.991,0.300,0.700,AutoCalculate,NECB-ACTIVITY,No,3.8200E-008,0,1
 People Internal Gains Nominal, GUESTROOM402_405 ZN SPACE FUNCTION GUEST ROOM PEOPLE,NECB-F-OCCUPANCY,GUESTROOM402_405 ZN,130.45,5.2,5.2,4.001E-002,24.991,0.300,0.700,AutoCalculate,NECB-ACTIVITY,No,3.8200E-008,1,3
 People Internal Gains Nominal, GUESTROOM406_408 ZN SPACE FUNCTION GUEST ROOM PEOPLE,NECB-F-OCCUPANCY,GUESTROOM406_408 ZN,105.36,4.2,4.2,4.001E-002,24.991,0.300,0.700,AutoCalculate,NECB-ACTIVITY,No,3.8200E-008,1,3
 People Internal Gains Nominal, GUESTROOM409_412 ZN SPACE FUNCTION GUEST ROOM PEOPLE,NECB-F-OCCUPANCY,GUESTROOM409_412 ZN,130.45,5.2,5.2,4.001E-002,24.991,0.300,0.700,AutoCalculate,NECB-ACTIVITY,No,3.8200E-008,1,3
 People Internal Gains Nominal, GUESTROOM413 ZN SPACE FUNCTION GUEST ROOM PEOPLE,NECB-F-OCCUPANCY,GUESTROOM413 ZN,32.61,1.3,1.3,4.001E-002,24.991,0.300,0.700,AutoCalculate,NECB-ACTIVITY,No,3.8200E-008,0,1
 People Internal Gains Nominal, GUESTROOM414 ZN SPACE FUNCTION GUEST ROOM PEOPLE,NECB-F-OCCUPANCY,GUESTROOM414 ZN,32.61,1.3,1.3,4.001E-002,24.991,0.300,0.700,AutoCalculate,NECB-ACTIVITY,No,3.8200E-008,0,1
 People Internal Gains Nominal, GUESTROOM415_418 ZN SPACE FUNCTION GUEST ROOM PEOPLE,NECB-F-OCCUPANCY,GUESTROOM415_418 ZN,130.44,5.2,5.2,4.001E-002,24.991,0.300,0.700,AutoCalculate,NECB-ACTIVITY,No,3.8200E-008,1,3
 People Internal Gains Nominal, GUESTROOM419 ZN SPACE FUNCTION GUEST ROOM PEOPLE,NECB-F-OCCUPANCY,GUESTROOM419 ZN,32.61,1.3,1.3,4.001E-002,24.991,0.300,0.700,AutoCalculate,NECB-ACTIVITY,No,3.8200E-008,0,1
 People Internal Gains Nominal, GUESTROOM420_423 ZN SPACE FUNCTION GUEST ROOM PEOPLE,NECB-F-OCCUPANCY,GUESTROOM420_423 ZN,130.44,5.2,5.2,4.001E-002,24.991,0.300,0.700,AutoCalculate,NECB-ACTIVITY,No,3.8200E-008,1,3
 People Internal Gains Nominal, GUESTROOM424 ZN SPACE FUNCTION GUEST ROOM PEOPLE,NECB-F-OCCUPANCY,GUESTROOM424 ZN,32.61,1.3,1.3,4.001E-002,24.991,0.300,0.700,AutoCalculate,NECB-ACTIVITY,No,3.8200E-008,0,1
 People Internal Gains Nominal, EXERCISECENTERFLR1 ZN SPACE FUNCTION GYMNASIUM/FITNESS CENTRE EXERCISE AREA PEOPLE,NECB-B-OCCUPANCY,EXERCISECENTERFLR1 ZN,32.61,6.5,6.5,0.200,4.998,0.300,0.700,AutoCalculate,NECB-ACTIVITY,No,3.8200E-008,0,6
 People Internal Gains Nominal, ELEVATORCOREFLR1 ZN SPACE FUNCTION LOBBY - ELEVATOR PEOPLE,NECB-C-OCCUPANCY,ELEVATORCOREFLR1 ZN,15.05,1.5,1.5,0.100,9.996,0.300,0.700,AutoCalculate,NECB-ACTIVITY,No,3.8200E-008,0,1
 People Internal Gains Nominal, ELEVATORCOREFLR2 ZN SPACE FUNCTION LOBBY - ELEVATOR PEOPLE,NECB-C-OCCUPANCY,ELEVATORCOREFLR2 ZN,15.05,1.5,1.5,0.100,9.996,0.300,0.700,AutoCalculate,NECB-ACTIVITY,No,3.8200E-008,0,1
 People Internal Gains Nominal, ELEVATORCOREFLR3 ZN SPACE FUNCTION LOBBY - ELEVATOR PEOPLE,NECB-C-OCCUPANCY,ELEVATORCOREFLR3 ZN,15.05,1.5,1.5,0.100,9.996,0.300,0.700,AutoCalculate,NECB-ACTIVITY,No,3.8200E-008,0,1
 People Internal Gains Nominal, ELEVATORCOREFLR4 ZN SPACE FUNCTION LOBBY - ELEVATOR PEOPLE,NECB-C-OCCUPANCY,ELEVATORCOREFLR4 ZN,15.05,1.5,1.5,0.100,9.996,0.300,0.700,AutoCalculate,NECB-ACTIVITY,No,3.8200E-008,0,1
 People Internal Gains Nominal, FRONTLOUNGEFLR1 ZN SPACE FUNCTION LOBBY - HOTEL PEOPLE,NECB-H-OCCUPANCY,FRONTLOUNGEFLR1 ZN,163.06,16.3,16.3,0.100,9.996,0.300,0.700,AutoCalculate,NECB-ACTIVITY,No,3.8200E-008,15,15
 People Internal Gains Nominal, EMPLOYEELOUNGEFLR1 ZN SPACE FUNCTION LOUNGE/BREAK ROOM - OTHER PEOPLE,NECB-B-OCCUPANCY,EMPLOYEELOUNGEFLR1 ZN,32.61,3.3,3.3,0.100,9.996,0.300,0.700,AutoCalculate,NECB-ACTIVITY,No,3.8200E-008,0,3
 People Internal Gains Nominal, FRONTOFFICEFLR1 ZN SPACE FUNCTION OFFICE ENCLOSED > 25 M2 PEOPLE,NECB-A-OCCUPANCY,FRONTOFFICEFLR1 ZN,130.44,6.5,6.5,5.002E-002,19.993,0.300,0.700,AutoCalculate,NECB-ACTIVITY,No,3.8200E-008,0,6
 People Internal Gains Nominal, FRONTSTAIRSFLR1 ZN SPACE FUNCTION STAIRWAY/STAIRWELL-SCH-F PEOPLE,NECB-F-OCCUPANCY,FRONTSTAIRSFLR1 ZN,20.07,0.1,0.1,5.002E-003,199.927,0.300,0.700,AutoCalculate,NECB-ACTIVITY,No,3.8200E-008,1.E-002,6.E-002
 People Internal Gains Nominal, FRONTSTAIRSFLR2 ZN SPACE FUNCTION STAIRWAY/STAIRWELL-SCH-F PEOPLE,NECB-F-OCCUPANCY,FRONTSTAIRSFLR2 ZN,20.07,0.1,0.1,5.002E-003,199.927,0.300,0.700,AutoCalculate,NECB-ACTIVITY,No,3.8200E-008,1.E-002,6.E-002
 People Internal Gains Nominal, FRONTSTAIRSFLR3 ZN SPACE FUNCTION STAIRWAY/STAIRWELL-SCH-F PEOPLE,NECB-F-OCCUPANCY,FRONTSTAIRSFLR3 ZN,20.07,0.1,0.1,5.002E-003,199.927,0.300,0.700,AutoCalculate,NECB-ACTIVITY,No,3.8200E-008,1.E-002,6.E-002
 People Internal Gains Nominal, FRONTSTAIRSFLR4 ZN SPACE FUNCTION STAIRWAY/STAIRWELL-SCH-F PEOPLE,NECB-F-OCCUPANCY,FRONTSTAIRSFLR4 ZN,20.07,0.1,0.1,5.002E-003,199.927,0.300,0.700,AutoCalculate,NECB-ACTIVITY,No,3.8200E-008,1.E-002,6.E-002
 People Internal Gains Nominal, REARSTAIRSFLR1 ZN SPACE FUNCTION STAIRWAY/STAIRWELL-SCH-F PEOPLE,NECB-F-OCCUPANCY,REARSTAIRSFLR1 ZN,20.07,0.1,0.1,5.002E-003,199.927,0.300,0.700,AutoCalculate,NECB-ACTIVITY,No,3.8200E-008,1.E-002,6.E-002
 People Internal Gains Nominal, REARSTAIRSFLR2 ZN SPACE FUNCTION STAIRWAY/STAIRWELL-SCH-F PEOPLE,NECB-F-OCCUPANCY,REARSTAIRSFLR2 ZN,20.07,0.1,0.1,5.002E-003,199.927,0.300,0.700,AutoCalculate,NECB-ACTIVITY,No,3.8200E-008,1.E-002,6.E-002
 People Internal Gains Nominal, REARSTAIRSFLR3 ZN SPACE FUNCTION STAIRWAY/STAIRWELL-SCH-F PEOPLE,NECB-F-OCCUPANCY,REARSTAIRSFLR3 ZN,20.07,0.1,0.1,5.002E-003,199.927,0.300,0.700,AutoCalculate,NECB-ACTIVITY,No,3.8200E-008,1.E-002,6.E-002
 People Internal Gains Nominal, REARSTAIRSFLR4 ZN SPACE FUNCTION STAIRWAY/STAIRWELL-SCH-F PEOPLE,NECB-F-OCCUPANCY,REARSTAIRSFLR4 ZN,20.07,0.1,0.1,5.002E-003,199.927,0.300,0.700,AutoCalculate,NECB-ACTIVITY,No,3.8200E-008,1.E-002,6.E-002
 People Internal Gains Nominal, FRONTSTORAGEFLR1 ZN SPACE FUNCTION STORAGE ROOM <= 5 M2 <= 100 M2-SCH-F PEOPLE,NECB-F-OCCUPANCY,FRONTSTORAGEFLR1 ZN,12.54,0.1,0.1,1.000E-002,99.964,0.300,0.700,AutoCalculate,NECB-ACTIVITY,No,3.8200E-008,2.E-002,8.E-002
 People Internal Gains Nominal, FRONTSTORAGEFLR2 ZN SPACE FUNCTION STORAGE ROOM <= 5 M2 <= 100 M2-SCH-F PEOPLE,NECB-F-OCCUPANCY,FRONTSTORAGEFLR2 ZN,12.54,0.1,0.1,1.000E-002,99.964,0.300,0.700,AutoCalculate,NECB-ACTIVITY,No,3.8200E-008,2.E-002,8.E-002
 People Internal Gains Nominal, FRONTSTORAGEFLR3 ZN SPACE FUNCTION STORAGE ROOM <= 5 M2 <= 100 M2-SCH-F PEOPLE,NECB-F-OCCUPANCY,FRONTSTORAGEFLR3 ZN,12.54,0.1,0.1,1.000E-002,99.964,0.300,0.700,AutoCalculate,NECB-ACTIVITY,No,3.8200E-008,2.E-002,8.E-002
 People Internal Gains Nominal, FRONTSTORAGEFLR4 ZN SPACE FUNCTION STORAGE ROOM <= 5 M2 <= 100 M2-SCH-F PEOPLE,NECB-F-OCCUPANCY,FRONTSTORAGEFLR4 ZN,12.54,0.1,0.1,1.000E-002,99.964,0.300,0.700,AutoCalculate,NECB-ACTIVITY,No,3.8200E-008,2.E-002,8.E-002
 People Internal Gains Nominal, LAUNDRYROOMFLR1 ZN SPACE FUNCTION STORAGE ROOM <= 5 M2 <= 100 M2-SCH-F PEOPLE,NECB-F-OCCUPANCY,LAUNDRYROOMFLR1 ZN,97.83,1.0,1.0,1.000E-002,99.964,0.300,0.700,AutoCalculate,NECB-ACTIVITY,No,3.8200E-008,0,1
 People Internal Gains Nominal, REARSTORAGEFLR1 ZN SPACE FUNCTION STORAGE ROOM <= 5 M2 <= 100 M2-SCH-F PEOPLE,NECB-F-OCCUPANCY,REARSTORAGEFLR1 ZN,20.07,0.2,0.2,1.000E-002,99.964,0.300,0.700,AutoCalculate,NECB-ACTIVITY,No,3.8200E-008,3.E-002,0
 People Internal Gains Nominal, REARSTORAGEFLR2 ZN SPACE FUNCTION STORAGE ROOM <= 5 M2 <= 100 M2-SCH-F PEOPLE,NECB-F-OCCUPANCY,REARSTORAGEFLR2 ZN,20.07,0.2,0.2,1.000E-002,99.964,0.300,0.700,AutoCalculate,NECB-ACTIVITY,No,3.8200E-008,3.E-002,0
 People Internal Gains Nominal, REARSTORAGEFLR3 ZN SPACE FUNCTION STORAGE ROOM <= 5 M2 <= 100 M2-SCH-F PEOPLE,NECB-F-OCCUPANCY,REARSTORAGEFLR3 ZN,20.07,0.2,0.2,1.000E-002,99.964,0.300,0.700,AutoCalculate,NECB-ACTIVITY,No,3.8200E-008,3.E-002,0
 People Internal Gains Nominal, REARSTORAGEFLR4 ZN SPACE FUNCTION STORAGE ROOM <= 5 M2 <= 100 M2-SCH-F PEOPLE,NECB-F-OCCUPANCY,REARSTORAGEFLR4 ZN,20.07,0.2,0.2,1.000E-002,99.964,0.300,0.700,AutoCalculate,NECB-ACTIVITY,No,3.8200E-008,3.E-002,0
 People Internal Gains Nominal, RESTROOMFLR1 ZN SPACE FUNCTION WASHROOM - OTHER-SCH-F PEOPLE,NECB-F-OCCUPANCY,RESTROOMFLR1 ZN,32.61,1.1,1.1,3.335E-002,29.989,0.300,0.700,AutoCalculate,NECB-ACTIVITY,No,3.8200E-008,0,1
! <Lights Internal Gains Nominal>,Name,Schedule Name,Zone Name,Zone Floor Area {m2},# Zone Occupants,Lighting Level {W},Lights/Floor Area {W/m2},Lights per person {W/person},Fraction Return Air,Fraction Radiant,Fraction Short Wave,Fraction Convected,Fraction Replaceable,End-Use Category,Nominal Minimum Lighting Level {W},Nominal Maximum Lighting Level {W}
 Lights Internal Gains Nominal, CORRIDORFLR1 ZN SPACE FUNCTION CORRIDOR/TRANSITION AREA OTHER-SCH-F LIGHTS,NECB-F-LIGHTING,CORRIDORFLR1 ZN,150.51,1.5,1068.979,7.103,710.000,0.000,0.500,0.200,0.300,1.000,General,74.829,673.457
 Lights Internal Gains Nominal, CORRIDORFLR2 ZN SPACE FUNCTION CORRIDOR/TRANSITION AREA OTHER-SCH-F LIGHTS,NECB-F-LIGHTING,CORRIDORFLR2 ZN,125.42,1.3,890.807,7.103,710.000,0.000,0.500,0.200,0.300,1.000,General,62.356,561.208
 Lights Internal Gains Nominal, CORRIDORFLR3 ZN SPACE FUNCTION CORRIDOR/TRANSITION AREA OTHER-SCH-F LIGHTS,NECB-F-LIGHTING,CORRIDORFLR3 ZN,125.42,1.3,890.807,7.103,710.000,0.000,0.500,0.200,0.300,1.000,General,62.356,561.208
 Lights Internal Gains Nominal, CORRIDORFLR4 ZN SPACE FUNCTION CORRIDOR/TRANSITION AREA OTHER-SCH-F LIGHTS,NECB-F-LIGHTING,CORRIDORFLR4 ZN,125.42,1.3,890.807,7.103,710.000,0.000,0.500,0.200,0.300,1.000,General,62.356,561.208
 Lights Internal Gains Nominal, MECHANICALROOMFLR1 ZN SPACE FUNCTION ELECTRICAL/MECHANICAL ROOM-SCH-F LIGHTS,NECB-F-LIGHTING,MECHANICALROOMFLR1 ZN,32.61,0.2,150.066,4.602,920.000,0.000,0.500,0.200,0.300,1.000,General,10.505,94.542
 Lights Internal Gains Nominal, MEETINGROOMFLR1 ZN SPACE FUNCTION ELECTRICAL/MECHANICAL ROOM-SCH-F LIGHTS,NECB-F-LIGHTING,MEETINGROOMFLR1 ZN,80.27,0.4,369.394,4.602,920.000,0.000,0.500,0.200,0.300,1.000,General,25.858,232.718
 Lights Internal Gains Nominal, GUESTROOM101 ZN SPACE FUNCTION GUEST ROOM LIGHTS,NECB-F-LIGHTING,GUESTROOM101 ZN,32.61,1.3,166.378,5.102,127.500,0.000,0.500,0.200,0.300,1.000,General,11.646,104.818
 Lights Internal Gains Nominal, GUESTROOM102 ZN SPACE FUNCTION GUEST ROOM LIGHTS,NECB-F-LIGHTING,GUESTROOM102 ZN,32.61,1.3,166.378,5.102,127.500,0.000,0.500,0.200,0.300,1.000,General,11.646,104.818
 Lights Internal Gains Nominal, GUESTROOM103 ZN SPACE FUNCTION GUEST ROOM LIGHTS,NECB-F-LIGHTING,GUESTROOM103 ZN,32.61,1.3,166.378,5.102,127.500,0.000,0.500,0.200,0.300,1.000,General,11.646,104.818
 Lights Internal Gains Nominal, GUESTROOM104 ZN SPACE FUNCTION GUEST ROOM LIGHTS,NECB-F-LIGHTING,GUESTROOM104 ZN,32.61,1.3,166.366,5.102,127.500,0.000,0.500,0.200,0.300,1.000,General,11.646,104.811
 Lights Internal Gains Nominal, GUESTROOM105 ZN SPACE FUNCTION GUEST ROOM LIGHTS,NECB-F-LIGHTING,GUESTROOM105 ZN,32.61,1.3,166.366,5.102,127.500,0.000,0.500,0.200,0.300,1.000,General,11.646,104.811
 Lights Internal Gains Nominal, GUESTROOM201 ZN SPACE FUNCTION GUEST ROOM LIGHTS,NECB-F-LIGHTING,GUESTROOM201 ZN,32.61,1.3,166.378,5.102,127.500,0.000,0.500,0.200,0.300,1.000,General,11.646,104.818
 Lights Internal Gains Nominal, GUESTROOM202_205 ZN SPACE FUNCTION GUEST ROOM LIGHTS,NECB-F-LIGHTING,GUESTROOM202_205 ZN,130.45,5.2,665.512,5.102,127.500,0.000,0.500,0.200,0.300,1.000,General,46.586,419.273
 Lights Internal Gains Nominal, GUESTROOM206_208 ZN SPACE FUNCTION GUEST ROOM LIGHTS,NECB-F-LIGHTING,GUESTROOM206_208 ZN,105.36,4.2,537.529,5.102,127.500,0.000,0.500,0.200,0.300,1.000,General,37.627,338.643
 Lights Internal Gains Nominal, GUESTROOM209_212 ZN SPACE FUNCTION GUEST ROOM LIGHTS,NECB-F-LIGHTING,GUESTROOM209_212 ZN,130.45,5.2,665.512,5.102,127.500,0.000,0.500,0.200,0.300,1.000,General,46.586,419.273
 Lights Internal Gains Nominal, GUESTROOM213 ZN SPACE FUNCTION GUEST ROOM LIGHTS,NECB-F-LIGHTING,GUESTROOM213 ZN,32.61,1.3,166.378,5.102,127.500,0.000,0.500,0.200,0.300,1.000,General,11.646,104.818
 Lights Internal Gains Nominal, GUESTROOM214 ZN SPACE FUNCTION GUEST ROOM LIGHTS,NECB-F-LIGHTING,GUESTROOM214 ZN,32.61,1.3,166.366,5.102,127.500,0.000,0.500,0.200,0.300,1.000,General,11.646,104.811
 Lights Internal Gains Nominal, GUESTROOM215_218 ZN SPACE FUNCTION GUEST ROOM LIGHTS,NECB-F-LIGHTING,GUESTROOM215_218 ZN,130.44,5.2,665.465,5.102,127.500,0.000,0.500,0.200,0.300,1.000,General,46.583,419.243
 Lights Internal Gains Nominal, GUESTROOM219 ZN SPACE FUNCTION GUEST ROOM LIGHTS,NECB-F-LIGHTING,GUESTROOM219 ZN,32.61,1.3,166.366,5.102,127.500,0.000,0.500,0.200,0.300,1.000,General,11.646,104.811
 Lights Internal Gains Nominal, GUESTROOM220_223 ZN SPACE FUNCTION GUEST ROOM LIGHTS,NECB-F-LIGHTING,GUESTROOM220_223 ZN,130.44,5.2,665.465,5.102,127.500,0.000,0.500,0.200,0.300,1.000,General,46.583,419.243
 Lights Internal Gains Nominal, GUESTROOM224 ZN SPACE FUNCTION GUEST ROOM LIGHTS,NECB-F-LIGHTING,GUESTROOM224 ZN,32.61,1.3,166.366,5.102,127.500,0.000,0.500,0.200,0.300,1.000,General,11.646,104.811
 Lights Internal Gains Nominal, GUESTROOM301 ZN SPACE FUNCTION GUEST ROOM LIGHTS,NECB-F-LIGHTING,GUESTROOM301 ZN,32.61,1.3,166.378,5.102,127.500,0.000,0.500,0.200,0.300,1.000,General,11.646,104.818
 Lights Internal Gains Nominal, GUESTROOM302_305 ZN SPACE FUNCTION GUEST ROOM LIGHTS,NECB-F-LIGHTING,GUESTROOM302_305 ZN,130.45,5.2,665.512,5.102,127.500,0.000,0.500,0.200,0.300,1.000,General,46.586,419.273
 Lights Internal Gains Nominal, GUESTROOM306_308 ZN SPACE FUNCTION GUEST ROOM LIGHTS,NECB-F-LIGHTING,GUESTROOM306_308 ZN,105.36,4.2,537.529,5.102,127.500,0.000,0.500,0.200,0.300,1.000,General,37.627,338.643
 Lights Internal Gains Nominal, GUESTROOM309_312 ZN SPACE FUNCTION GUEST ROOM LIGHTS,NECB-F-LIGHTING,GUESTROOM309_312 ZN,130.45,5.2,665.512,5.102,127.500,0.000,0.500,0.200,0.300,1.000,General,46.586,419.273
 Lights Internal Gains Nominal, GUESTROOM313 ZN SPACE FUNCTION GUEST ROOM LIGHTS,NECB-F-LIGHTING,GUESTROOM313 ZN,32.61,1.3,166.378,5.102,127.500,0.000,0.500,0.200,0.300,1.000,General,11.646,104.818
 Lights Internal Gains Nominal, GUESTROOM314 ZN SPACE FUNCTION GUEST ROOM LIGHTS,NECB-F-LIGHTING,GUESTROOM314 ZN,32.61,1.3,166.366,5.102,127.500,0.000,0.500,0.200,0.300,1.000,General,11.646,104.811
 Lights Internal Gains Nominal, GUESTROOM315_318 ZN SPACE FUNCTION GUEST ROOM LIGHTS,NECB-F-LIGHTING,GUESTROOM315_318 ZN,130.44,5.2,665.465,5.102,127.500,0.000,0.500,0.200,0.300,1.000,General,46.583,419.243
 Lights Internal Gains Nominal, GUESTROOM319 ZN SPACE FUNCTION GUEST ROOM LIGHTS,NECB-F-LIGHTING,GUESTROOM319 ZN,32.61,1.3,166.366,5.102,127.500,0.000,0.500,0.200,0.300,1.000,General,11.646,104.811
 Lights Internal Gains Nominal, GUESTROOM320_323 ZN SPACE FUNCTION GUEST ROOM LIGHTS,NECB-F-LIGHTING,GUESTROOM320_323 ZN,130.44,5.2,665.465,5.102,127.500,0.000,0.500,0.200,0.300,1.000,General,46.583,419.243
 Lights Internal Gains Nominal, GUESTROOM324 ZN SPACE FUNCTION GUEST ROOM LIGHTS,NECB-F-LIGHTING,GUESTROOM324 ZN,32.61,1.3,166.366,5.102,127.500,0.000,0.500,0.200,0.300,1.000,General,11.646,104.811
 Lights Internal Gains Nominal, GUESTROOM401 ZN SPACE FUNCTION GUEST ROOM LIGHTS,NECB-F-LIGHTING,GUESTROOM401 ZN,32.61,1.3,166.378,5.102,127.500,0.000,0.500,0.200,0.300,1.000,General,11.646,104.818
 Lights Internal Gains Nominal, GUESTROOM402_405 ZN SPACE FUNCTION GUEST ROOM LIGHTS,NECB-F-LIGHTING,GUESTROOM402_405 ZN,130.45,5.2,665.512,5.102,127.500,0.000,0.500,0.200,0.300,1.000,General,46.586,419.273
 Lights Internal Gains Nominal, GUESTROOM406_408 ZN SPACE FUNCTION GUEST ROOM LIGHTS,NECB-F-LIGHTING,GUESTROOM406_408 ZN,105.36,4.2,537.529,5.102,127.500,0.000,0.500,0.200,0.300,1.000,General,37.627,338.643
 Lights Internal Gains Nominal, GUESTROOM409_412 ZN SPACE FUNCTION GUEST ROOM LIGHTS,NECB-F-LIGHTING,GUESTROOM409_412 ZN,130.45,5.2,665.512,5.102,127.500,0.000,0.500,0.200,0.300,1.000,General,46.586,419.273
 Lights Internal Gains Nominal, GUESTROOM413 ZN SPACE FUNCTION GUEST ROOM LIGHTS,NECB-F-LIGHTING,GUESTROOM413 ZN,32.61,1.3,166.378,5.102,127.500,0.000,0.500,0.200,0.300,1.000,General,11.646,104.818
 Lights Internal Gains Nominal, GUESTROOM414 ZN SPACE FUNCTION GUEST ROOM LIGHTS,NECB-F-LIGHTING,GUESTROOM414 ZN,32.61,1.3,166.366,5.102,127.500,0.000,0.500,0.200,0.300,1.000,General,11.646,104.811
 Lights Internal Gains Nominal, GUESTROOM415_418 ZN SPACE FUNCTION GUEST ROOM LIGHTS,NECB-F-LIGHTING,GUESTROOM415_418 ZN,130.44,5.2,665.465,5.102,127.500,0.000,0.500,0.200,0.300,1.000,General,46.583,419.243
 Lights Internal Gains Nominal, GUESTROOM419 ZN SPACE FUNCTION GUEST ROOM LIGHTS,NECB-F-LIGHTING,GUESTROOM419 ZN,32.61,1.3,166.366,5.102,127.500,0.000,0.500,0.200,0.300,1.000,General,11.646,104.811
 Lights Internal Gains Nominal, GUESTROOM420_423 ZN SPACE FUNCTION GUEST ROOM LIGHTS,NECB-F-LIGHTING,GUESTROOM420_423 ZN,130.44,5.2,665.465,5.102,127.500,0.000,0.500,0.200,0.300,1.000,General,46.583,419.243
 Lights Internal Gains Nominal, GUESTROOM424 ZN SPACE FUNCTION GUEST ROOM LIGHTS,NECB-F-LIGHTING,GUESTROOM424 ZN,32.61,1.3,166.366,5.102,127.500,0.000,0.500,0.200,0.300,1.000,General,11.646,104.811
 Lights Internal Gains Nominal, EXERCISECENTERFLR1 ZN SPACE FUNCTION GYMNASIUM/FITNESS CENTRE EXERCISE AREA LIGHTS,NECB-B-LIGHTING,EXERCISECENTERFLR1 ZN,32.61,6.5,254.442,7.803,39.000,0.000,0.500,0.200,0.300,1.000,General,25.444,228.998
 Lights Internal Gains Nominal, ELEVATORCOREFLR1 ZN SPACE FUNCTION LOBBY - ELEVATOR LIGHTS,NECB-C-LIGHTING,ELEVATORCOREFLR1 ZN,15.05,1.5,105.390,7.003,70.000,0.000,0.500,0.200,0.300,1.000,General,5.270,94.851
 Lights Internal Gains Nominal, ELEVATORCOREFLR2 ZN SPACE FUNCTION LOBBY - ELEVATOR LIGHTS,NECB-C-LIGHTING,ELEVATORCOREFLR2 ZN,15.05,1.5,105.390,7.003,70.000,0.000,0.500,0.200,0.300,1.000,General,5.270,94.851
 Lights Internal Gains Nominal, ELEVATORCOREFLR3 ZN SPACE FUNCTION LOBBY - ELEVATOR LIGHTS,NECB-C-LIGHTING,ELEVATORCOREFLR3 ZN,15.05,1.5,105.390,7.003,70.000,0.000,0.500,0.200,0.300,1.000,General,5.270,94.851
 Lights Internal Gains Nominal, ELEVATORCOREFLR4 ZN SPACE FUNCTION LOBBY - ELEVATOR LIGHTS,NECB-C-LIGHTING,ELEVATORCOREFLR4 ZN,15.05,1.5,105.390,7.003,70.000,0.000,0.500,0.200,0.300,1.000,General,5.270,94.851
 Lights Internal Gains Nominal, FRONTLOUNGEFLR1 ZN SPACE FUNCTION LOBBY - HOTEL LIGHTS,NECB-H-OCCUPANCY-NECB-H-LIGHTING-0.0-0.0-0.67-LIGHT RULESET,FRONTLOUNGEFLR1 ZN,163.06,16.3,1875.830,11.504,115.000,0.000,0.500,0.200,0.300,1.000,General,1688.247,1688.247
 Lights Internal Gains Nominal, EMPLOYEELOUNGEFLR1 ZN SPACE FUNCTION LOUNGE/BREAK ROOM - OTHER LIGHTS,NECB-B-LIGHTING,EMPLOYEELOUNGEFLR1 ZN,32.61,3.3,257.704,7.903,79.000,0.000,0.500,0.200,0.300,1.000,General,25.770,231.934
 Lights Internal Gains Nominal, FRONTOFFICEFLR1 ZN SPACE FUNCTION OFFICE ENCLOSED > 25 M2 LIGHTS,NECB-A-OCCUPANCY-NECB-A-LIGHTING-0.3-0.1-0.67-LIGHT RULESET,FRONTOFFICEFLR1 ZN,130.44,6.5,1565.799,12.004,240.000,0.000,0.500,0.200,0.300,1.000,General,54.725,1409.219
 Lights Internal Gains Nominal, FRONTSTAIRSFLR1 ZN SPACE FUNCTION STAIRWAY/STAIRWELL-SCH-F LIGHTS,NECB-F-LIGHTING,FRONTSTAIRSFLR1 ZN,20.07,0.1,148.550,7.403,1480.000,0.000,0.500,0.200,0.300,1.000,General,10.399,93.587
 Lights Internal Gains Nominal, FRONTSTAIRSFLR2 ZN SPACE FUNCTION STAIRWAY/STAIRWELL-SCH-F LIGHTS,NECB-F-LIGHTING,FRONTSTAIRSFLR2 ZN,20.07,0.1,148.550,7.403,1480.000,0.000,0.500,0.200,0.300,1.000,General,10.399,93.587
 Lights Internal Gains Nominal, FRONTSTAIRSFLR3 ZN SPACE FUNCTION STAIRWAY/STAIRWELL-SCH-F LIGHTS,NECB-F-LIGHTING,FRONTSTAIRSFLR3 ZN,20.07,0.1,148.550,7.403,1480.000,0.000,0.500,0.200,0.300,1.000,General,10.399,93.587
 Lights Internal Gains Nominal, FRONTSTAIRSFLR4 ZN SPACE FUNCTION STAIRWAY/STAIRWELL-SCH-F LIGHTS,NECB-F-LIGHTING,FRONTSTAIRSFLR4 ZN,20.07,0.1,148.550,7.403,1480.000,0.000,0.500,0.200,0.300,1.000,General,10.399,93.587
 Lights Internal Gains Nominal, REARSTAIRSFLR1 ZN SPACE FUNCTION STAIRWAY/STAIRWELL-SCH-F LIGHTS,NECB-F-LIGHTING,REARSTAIRSFLR1 ZN,20.07,0.1,148.586,7.403,1480.000,0.000,0.500,0.200,0.300,1.000,General,10.401,93.609
 Lights Internal Gains Nominal, REARSTAIRSFLR2 ZN SPACE FUNCTION STAIRWAY/STAIRWELL-SCH-F LIGHTS,NECB-F-LIGHTING,REARSTAIRSFLR2 ZN,20.07,0.1,148.586,7.403,1480.000,0.000,0.500,0.200,0.300,1.000,General,10.401,93.609
 Lights Internal Gains Nominal, REARSTAIRSFLR3 ZN SPACE FUNCTION STAIRWAY/STAIRWELL-SCH-F LIGHTS,NECB-F-LIGHTING,REARSTAIRSFLR3 ZN,20.07,0.1,148.586,7.403,1480.000,0.000,0.500,0.200,0.300,1.000,General,10.401,93.609
 Lights Internal Gains Nominal, REARSTAIRSFLR4 ZN SPACE FUNCTION STAIRWAY/STAIRWELL-SCH-F LIGHTS,NECB-F-LIGHTING,REARSTAIRSFLR4 ZN,20.07,0.1,148.586,7.403,1480.000,0.000,0.500,0.200,0.300,1.000,General,10.401,93.609
 Lights Internal Gains Nominal, FRONTSTORAGEFLR1 ZN SPACE FUNCTION STORAGE ROOM <= 5 M2 <= 100 M2-SCH-F LIGHTS,NECB-F-LIGHTING,FRONTSTORAGEFLR1 ZN,12.54,0.1,85.316,6.802,680.000,0.000,0.500,0.200,0.300,1.000,General,5.972,53.749
 Lights Internal Gains Nominal, FRONTSTORAGEFLR2 ZN SPACE FUNCTION STORAGE ROOM <= 5 M2 <= 100 M2-SCH-F LIGHTS,NECB-F-LIGHTING,FRONTSTORAGEFLR2 ZN,12.54,0.1,85.316,6.802,680.000,0.000,0.500,0.200,0.300,1.000,General,5.972,53.749
 Lights Internal Gains Nominal, FRONTSTORAGEFLR3 ZN SPACE FUNCTION STORAGE ROOM <= 5 M2 <= 100 M2-SCH-F LIGHTS,NECB-F-LIGHTING,FRONTSTORAGEFLR3 ZN,12.54,0.1,85.316,6.802,680.000,0.000,0.500,0.200,0.300,1.000,General,5.972,53.749
 Lights Internal Gains Nominal, FRONTSTORAGEFLR4 ZN SPACE FUNCTION STORAGE ROOM <= 5 M2 <= 100 M2-SCH-F LIGHTS,NECB-F-LIGHTING,FRONTSTORAGEFLR4 ZN,12.54,0.1,85.316,6.802,680.000,0.000,0.500,0.200,0.300,1.000,General,5.972,53.749
 Lights Internal Gains Nominal, LAUNDRYROOMFLR1 ZN SPACE FUNCTION STORAGE ROOM <= 5 M2 <= 100 M2-SCH-F LIGHTS,NECB-F-LIGHTING,LAUNDRYROOMFLR1 ZN,97.83,1.0,665.465,6.802,680.000,0.000,0.500,0.200,0.300,1.000,General,46.583,419.243
 Lights Internal Gains Nominal, REARSTORAGEFLR1 ZN SPACE FUNCTION STORAGE ROOM <= 5 M2 <= 100 M2-SCH-F LIGHTS,NECB-F-LIGHTING,REARSTORAGEFLR1 ZN,20.07,0.2,136.548,6.802,680.000,0.000,0.500,0.200,0.300,1.000,General,9.558,86.025
 Lights Internal Gains Nominal, REARSTORAGEFLR2 ZN SPACE FUNCTION STORAGE ROOM <= 5 M2 <= 100 M2-SCH-F LIGHTS,NECB-F-LIGHTING,REARSTORAGEFLR2 ZN,20.07,0.2,136.548,6.802,680.000,0.000,0.500,0.200,0.300,1.000,General,9.558,86.025
 Lights Internal Gains Nominal, REARSTORAGEFLR3 ZN SPACE FUNCTION STORAGE ROOM <= 5 M2 <= 100 M2-SCH-F LIGHTS,NECB-F-LIGHTING,REARSTORAGEFLR3 ZN,20.07,0.2,136.548,6.802,680.000,0.000,0.500,0.200,0.300,1.000,General,9.558,86.025
 Lights Internal Gains Nominal, REARSTORAGEFLR4 ZN SPACE FUNCTION STORAGE ROOM <= 5 M2 <= 100 M2-SCH-F LIGHTS,NECB-F-LIGHTING,REARSTORAGEFLR4 ZN,20.07,0.2,136.548,6.802,680.000,0.000,0.500,0.200,0.300,1.000,General,9.558,86.025
 Lights Internal Gains Nominal, RESTROOMFLR1 ZN SPACE FUNCTION WASHROOM - OTHER-SCH-F LIGHTS,NECB-F-OCCUPANCY-NECB-F-LIGHTING-0.5-0.0-0.67-LIGHT RULESET,RESTROOMFLR1 ZN,32.61,1.1,342.543,10.504,315.000,0.000,0.500,0.200,0.300,1.000,General,23.978,191.824
! <ElectricEquipment Internal Gains Nominal>,Name,Schedule Name,Zone Name,Zone Floor Area {m2},# Zone Occupants,Equipment Level {W},Equipment/Floor Area {W/m2},Equipment per person {W/person},Fraction Latent,Fraction Radiant,Fraction Lost,Fraction Convected,End-Use SubCategory,Nominal Minimum Equipment Level {W},Nominal Maximum Equipment Level {W}
 ElectricEquipment Internal Gains Nominal, MECHANICALROOMFLR1 ZN SPACE FUNCTION ELECTRICAL/MECHANICAL ROOM-SCH-F ELEC EQUIP,NECB-F-ELECTRIC-EQUIPMENT,MECHANICALROOMFLR1 ZN,32.61,0.2,32.623,1.000,200.000,0.000,0.500,0.000,0.500,General,2.284,20.553
 ElectricEquipment Internal Gains Nominal, MEETINGROOMFLR1 ZN SPACE FUNCTION ELECTRICAL/MECHANICAL ROOM-SCH-F ELEC EQUIP,NECB-F-ELECTRIC-EQUIPMENT,MEETINGROOMFLR1 ZN,80.27,0.4,80.303,1.000,200.000,0.000,0.500,0.000,0.500,General,5.621,50.591
 ElectricEquipment Internal Gains Nominal, GUESTROOM101 ZN SPACE FUNCTION GUEST ROOM ELEC EQUIP,NECB-F-ELECTRIC-EQUIPMENT,GUESTROOM101 ZN,32.61,1.3,81.558,2.501,62.500,0.000,0.500,0.000,0.500,General,5.709,51.381
 ElectricEquipment Internal Gains Nominal, GUESTROOM102 ZN SPACE FUNCTION GUEST ROOM ELEC EQUIP,NECB-F-ELECTRIC-EQUIPMENT,GUESTROOM102 ZN,32.61,1.3,81.558,2.501,62.500,0.000,0.500,0.000,0.500,General,5.709,51.381
 ElectricEquipment Internal Gains Nominal, GUESTROOM103 ZN SPACE FUNCTION GUEST ROOM ELEC EQUIP,NECB-F-ELECTRIC-EQUIPMENT,GUESTROOM103 ZN,32.61,1.3,81.558,2.501,62.500,0.000,0.500,0.000,0.500,General,5.709,51.381
 ElectricEquipment Internal Gains Nominal, GUESTROOM104 ZN SPACE FUNCTION GUEST ROOM ELEC EQUIP,NECB-F-ELECTRIC-EQUIPMENT,GUESTROOM104 ZN,32.61,1.3,81.552,2.501,62.500,0.000,0.500,0.000,0.500,General,5.709,51.378
 ElectricEquipment Internal Gains Nominal, GUESTROOM105 ZN SPACE FUNCTION GUEST ROOM ELEC EQUIP,NECB-F-ELECTRIC-EQUIPMENT,GUESTROOM105 ZN,32.61,1.3,81.552,2.501,62.500,0.000,0.500,0.000,0.500,General,5.709,51.378
 ElectricEquipment Internal Gains Nominal, GUESTROOM201 ZN SPACE FUNCTION GUEST ROOM ELEC EQUIP,NECB-F-ELECTRIC-EQUIPMENT,GUESTROOM201 ZN,32.61,1.3,81.558,2.501,62.500,0.000,0.500,0.000,0.500,General,5.709,51.381
 ElectricEquipment Internal Gains Nominal, GUESTROOM202_205 ZN SPACE FUNCTION GUEST ROOM ELEC EQUIP,NECB-F-ELECTRIC-EQUIPMENT,GUESTROOM202_205 ZN,130.45,5.2,326.231,2.501,62.500,0.000,0.500,0.000,0.500,General,22.836,205.526
 ElectricEquipment Internal Gains Nominal, GUESTROOM206_208 ZN SPACE FUNCTION GUEST ROOM ELEC EQUIP,NECB-F-ELECTRIC-EQUIPMENT,GUESTROOM206_208 ZN,105.36,4.2,263.495,2.501,62.500,0.000,0.500,0.000,0.500,General,18.445,166.002
 ElectricEquipment Internal Gains Nominal, GUESTROOM209_212 ZN SPACE FUNCTION GUEST ROOM ELEC EQUIP,NECB-F-ELECTRIC-EQUIPMENT,GUESTROOM209_212 ZN,130.45,5.2,326.231,2.501,62.500,0.000,0.500,0.000,0.500,General,22.836,205.526
 ElectricEquipment Internal Gains Nominal, GUESTROOM213 ZN SPACE FUNCTION GUEST ROOM ELEC EQUIP,NECB-F-ELECTRIC-EQUIPMENT,GUESTROOM213 ZN,32.61,1.3,81.558,2.501,62.500,0.000,0.500,0.000,0.500,General,5.709,51.381
 ElectricEquipment Internal Gains Nominal, GUESTROOM214 ZN SPACE FUNCTION GUEST ROOM ELEC EQUIP,NECB-F-ELECTRIC-EQUIPMENT,GUESTROOM214 ZN,32.61,1.3,81.552,2.501,62.500,0.000,0.500,0.000,0.500,General,5.709,51.378
 ElectricEquipment Internal Gains Nominal, GUESTROOM215_218 ZN SPACE FUNCTION GUEST ROOM ELEC EQUIP,NECB-F-ELECTRIC-EQUIPMENT,GUESTROOM215_218 ZN,130.44,5.2,326.208,2.501,62.500,0.000,0.500,0.000,0.500,General,22.835,205.511
 ElectricEquipment Internal Gains Nominal, GUESTROOM219 ZN SPACE FUNCTION GUEST ROOM ELEC EQUIP,NECB-F-ELECTRIC-EQUIPMENT,GUESTROOM219 ZN,32.61,1.3,81.552,2.501,62.500,0.000,0.500,0.000,0.500,General,5.709,51.378
 ElectricEquipment Internal Gains Nominal, GUESTROOM220_223 ZN SPACE FUNCTION GUEST ROOM ELEC EQUIP,NECB-F-ELECTRIC-EQUIPMENT,GUESTROOM220_223 ZN,130.44,5.2,326.208,2.501,62.500,0.000,0.500,0.000,0.500,General,22.835,205.511
 ElectricEquipment Internal Gains Nominal, GUESTROOM224 ZN SPACE FUNCTION GUEST ROOM ELEC EQUIP,NECB-F-ELECTRIC-EQUIPMENT,GUESTROOM224 ZN,32.61,1.3,81.552,2.501,62.500,0.000,0.500,0.000,0.500,General,5.709,51.378
 ElectricEquipment Internal Gains Nominal, GUESTROOM301 ZN SPACE FUNCTION GUEST ROOM ELEC EQUIP,NECB-F-ELECTRIC-EQUIPMENT,GUESTROOM301 ZN,32.61,1.3,81.558,2.501,62.500,0.000,0.500,0.000,0.500,General,5.709,51.381
 ElectricEquipment Internal Gains Nominal, GUESTROOM302_305 ZN SPACE FUNCTION GUEST ROOM ELEC EQUIP,NECB-F-ELECTRIC-EQUIPMENT,GUESTROOM302_305 ZN,130.45,5.2,326.231,2.501,62.500,0.000,0.500,0.000,0.500,General,22.836,205.526
 ElectricEquipment Internal Gains Nominal, GUESTROOM306_308 ZN SPACE FUNCTION GUEST ROOM ELEC EQUIP,NECB-F-ELECTRIC-EQUIPMENT,GUESTROOM306_308 ZN,105.36,4.2,263.495,2.501,62.500,0.000,0.500,0.000,0.500,General,18.445,166.002
 ElectricEquipment Internal Gains Nominal, GUESTROOM309_312 ZN SPACE FUNCTION GUEST ROOM ELEC EQUIP,NECB-F-ELECTRIC-EQUIPMENT,GUESTROOM309_312 ZN,130.45,5.2,326.231,2.501,62.500,0.000,0.500,0.000,0.500,General,22.836,205.526
 ElectricEquipment Internal Gains Nominal, GUESTROOM313 ZN SPACE FUNCTION GUEST ROOM ELEC EQUIP,NECB-F-ELECTRIC-EQUIPMENT,GUESTROOM313 ZN,32.61,1.3,81.558,2.501,62.500,0.000,0.500,0.000,0.500,General,5.709,51.381
 ElectricEquipment Internal Gains Nominal, GUESTROOM314 ZN SPACE FUNCTION GUEST ROOM ELEC EQUIP,NECB-F-ELECTRIC-EQUIPMENT,GUESTROOM314 ZN,32.61,1.3,81.552,2.501,62.500,0.000,0.500,0.000,0.500,General,5.709,51.378
 ElectricEquipment Internal Gains Nominal, GUESTROOM315_318 ZN SPACE FUNCTION GUEST ROOM ELEC EQUIP,NECB-F-ELECTRIC-EQUIPMENT,GUESTROOM315_318 ZN,130.44,5.2,326.208,2.501,62.500,0.000,0.500,0.000,0.500,General,22.835,205.511
 ElectricEquipment Internal Gains Nominal, GUESTROOM319 ZN SPACE FUNCTION GUEST ROOM ELEC EQUIP,NECB-F-ELECTRIC-EQUIPMENT,GUESTROOM319 ZN,32.61,1.3,81.552,2.501,62.500,0.000,0.500,0.000,0.500,General,5.709,51.378
 ElectricEquipment Internal Gains Nominal, GUESTROOM320_323 ZN SPACE FUNCTION GUEST ROOM ELEC EQUIP,NECB-F-ELECTRIC-EQUIPMENT,GUESTROOM320_323 ZN,130.44,5.2,326.208,2.501,62.500,0.000,0.500,0.000,0.500,General,22.835,205.511
 ElectricEquipment Internal Gains Nominal, GUESTROOM324 ZN SPACE FUNCTION GUEST ROOM ELEC EQUIP,NECB-F-ELECTRIC-EQUIPMENT,GUESTROOM324 ZN,32.61,1.3,81.552,2.501,62.500,0.000,0.500,0.000,0.500,General,5.709,51.378
 ElectricEquipment Internal Gains Nominal, GUESTROOM401 ZN SPACE FUNCTION GUEST ROOM ELEC EQUIP,NECB-F-ELECTRIC-EQUIPMENT,GUESTROOM401 ZN,32.61,1.3,81.558,2.501,62.500,0.000,0.500,0.000,0.500,General,5.709,51.381
 ElectricEquipment Internal Gains Nominal, GUESTROOM402_405 ZN SPACE FUNCTION GUEST ROOM ELEC EQUIP,NECB-F-ELECTRIC-EQUIPMENT,GUESTROOM402_405 ZN,130.45,5.2,326.231,2.501,62.500,0.000,0.500,0.000,0.500,General,22.836,205.526
 ElectricEquipment Internal Gains Nominal, GUESTROOM406_408 ZN SPACE FUNCTION GUEST ROOM ELEC EQUIP,NECB-F-ELECTRIC-EQUIPMENT,GUESTROOM406_408 ZN,105.36,4.2,263.495,2.501,62.500,0.000,0.500,0.000,0.500,General,18.445,166.002
 ElectricEquipment Internal Gains Nominal, GUESTROOM409_412 ZN SPACE FUNCTION GUEST ROOM ELEC EQUIP,NECB-F-ELECTRIC-EQUIPMENT,GUESTROOM409_412 ZN,130.45,5.2,326.231,2.501,62.500,0.000,0.500,0.000,0.500,General,22.836,205.526
 ElectricEquipment Internal Gains Nominal, GUESTROOM413 ZN SPACE FUNCTION GUEST ROOM ELEC EQUIP,NECB-F-ELECTRIC-EQUIPMENT,GUESTROOM413 ZN,32.61,1.3,81.558,2.501,62.500,0.000,0.500,0.000,0.500,General,5.709,51.381
 ElectricEquipment Internal Gains Nominal, GUESTROOM414 ZN SPACE FUNCTION GUEST ROOM ELEC EQUIP,NECB-F-ELECTRIC-EQUIPMENT,GUESTROOM414 ZN,32.61,1.3,81.552,2.501,62.500,0.000,0.500,0.000,0.500,General,5.709,51.378
 ElectricEquipment Internal Gains Nominal, GUESTROOM415_418 ZN SPACE FUNCTION GUEST ROOM ELEC EQUIP,NECB-F-ELECTRIC-EQUIPMENT,GUESTROOM415_418 ZN,130.44,5.2,326.208,2.501,62.500,0.000,0.500,0.000,0.500,General,22.835,205.511
 ElectricEquipment Internal Gains Nominal, GUESTROOM419 ZN SPACE FUNCTION GUEST ROOM ELEC EQUIP,NECB-F-ELECTRIC-EQUIPMENT,GUESTROOM419 ZN,32.61,1.3,81.552,2.501,62.500,0.000,0.500,0.000,0.500,General,5.709,51.378
 ElectricEquipment Internal Gains Nominal, GUESTROOM420_423 ZN SPACE FUNCTION GUEST ROOM ELEC EQUIP,NECB-F-ELECTRIC-EQUIPMENT,GUESTROOM420_423 ZN,130.44,5.2,326.208,2.501,62.500,0.000,0.500,0.000,0.500,General,22.835,205.511
 ElectricEquipment Internal Gains Nominal, GUESTROOM424 ZN SPACE FUNCTION GUEST ROOM ELEC EQUIP,NECB-F-ELECTRIC-EQUIPMENT,GUESTROOM424 ZN,32.61,1.3,81.552,2.501,62.500,0.000,0.500,0.000,0.500,General,5.709,51.378
 ElectricEquipment Internal Gains Nominal, EXERCISECENTERFLR1 ZN SPACE FUNCTION GYMNASIUM/FITNESS CENTRE EXERCISE AREA ELEC EQUIP,NECB-B-ELECTRIC-EQUIPMENT,EXERCISECENTERFLR1 ZN,32.61,6.5,32.621,1.000,5.000,0.000,0.500,0.000,0.500,General,3.262,29.359
 ElectricEquipment Internal Gains Nominal, ELEVATORCOREFLR1 ZN SPACE FUNCTION LOBBY - ELEVATOR ELEC EQUIP,NECB-C-ELECTRIC-EQUIPMENT,ELEVATORCOREFLR1 ZN,15.05,1.5,15.056,1.000,10.000,0.000,0.500,0.000,0.500,General,0.753,13.550
 ElectricEquipment Internal Gains Nominal, ELEVATORCOREFLR2 ZN SPACE FUNCTION LOBBY - ELEVATOR ELEC EQUIP,NECB-C-ELECTRIC-EQUIPMENT,ELEVATORCOREFLR2 ZN,15.05,1.5,15.056,1.000,10.000,0.000,0.500,0.000,0.500,General,0.753,13.550
 ElectricEquipment Internal Gains Nominal, ELEVATORCOREFLR3 ZN SPACE FUNCTION LOBBY - ELEVATOR ELEC EQUIP,NECB-C-ELECTRIC-EQUIPMENT,ELEVATORCOREFLR3 ZN,15.05,1.5,15.056,1.000,10.000,0.000,0.500,0.000,0.500,General,0.753,13.550
 ElectricEquipment Internal Gains Nominal, ELEVATORCOREFLR4 ZN SPACE FUNCTION LOBBY - ELEVATOR ELEC EQUIP,NECB-C-ELECTRIC-EQUIPMENT,ELEVATORCOREFLR4 ZN,15.05,1.5,15.056,1.000,10.000,0.000,0.500,0.000,0.500,General,0.753,13.550
 ElectricEquipment Internal Gains Nominal, FRONTLOUNGEFLR1 ZN SPACE FUNCTION LOBBY - HOTEL ELEC EQUIP,NECB-H-ELECTRIC-EQUIPMENT,FRONTLOUNGEFLR1 ZN,163.06,16.3,407.789,2.501,25.000,0.000,0.500,0.000,0.500,General,367.010,367.010
 ElectricEquipment Internal Gains Nominal, EMPLOYEELOUNGEFLR1 ZN SPACE FUNCTION LOUNGE/BREAK ROOM - OTHER ELEC EQUIP,NECB-B-ELECTRIC-EQUIPMENT,EMPLOYEELOUNGEFLR1 ZN,32.61,3.3,32.621,1.000,10.000,0.000,0.500,0.000,0.500,General,3.262,29.359
 ElectricEquipment Internal Gains Nominal, FRONTOFFICEFLR1 ZN SPACE FUNCTION OFFICE ENCLOSED > 25 M2 ELEC EQUIP,NECB-A-ELECTRIC-EQUIPMENT,FRONTOFFICEFLR1 ZN,130.44,6.5,978.625,7.503,150.000,0.000,0.500,0.000,0.500,General,195.725,880.762
 ElectricEquipment Internal Gains Nominal, RESTROOMFLR1 ZN SPACE FUNCTION WASHROOM - OTHER-SCH-F ELEC EQUIP,NECB-F-ELECTRIC-EQUIPMENT,RESTROOMFLR1 ZN,32.61,1.1,32.623,1.000,30.000,0.000,0.500,0.000,0.500,General,2.284,20.553
! <Shadowing/Sun Position Calculations Annual Simulations>, Calculation Method, Value {days}, Allowable Number Figures in Shadow Overlap {}, Polygon Clipping Algorithm, Sky Diffuse Modeling Algorithm, External Shading Calculation Method, Output External Shading Calculation Results, Disable Self-Shading Within Shading Zone Groups, Disable Self-Shading From Shading Zone Groups to Other Zones
Shadowing/Sun Position Calculations Annual Simulations,AverageOverDaysInFrequency,20,15000,SutherlandHodgman,SimpleSkyDiffuseModeling,InternalCalculation,No,No,No
! <ZoneInfiltration Airflow Stats Nominal>,Name,Schedule Name,Zone Name, Zone Floor Area {m2}, # Zone Occupants,Design Volume Flow Rate {m3/s},Volume Flow Rate/Floor Area {m3/s/m2},Volume Flow Rate/Exterior Surface Area {m3/s/m2},ACH - Air Changes per Hour,Equation A - Constant Term Coefficient {},Equation B - Temperature Term Coefficient {1/C},Equation C - Velocity Term Coefficient {s/m}, Equation D - Velocity Squared Term Coefficient {s2/m2}
 ZoneInfiltration Airflow Stats Nominal, CORRIDORFLR1 INFILTRATION,ALWAYS ON DISCRETE,CORRIDORFLR1 ZN,150.51,1.5,8.175E-003,5.432E-005,2.500E-004,5.832E-002,0.000,0.000,0.224,0.000
 ZoneInfiltration Airflow Stats Nominal, CORRIDORFLR2 INFILTRATION,ALWAYS ON DISCRETE,CORRIDORFLR2 ZN,125.42,1.3,4.599E-003,3.667E-005,2.500E-004,4.812E-002,0.000,0.000,0.224,0.000
 ZoneInfiltration Airflow Stats Nominal, CORRIDORFLR3 INFILTRATION,ALWAYS ON DISCRETE,CORRIDORFLR3 ZN,125.42,1.3,4.599E-003,3.667E-005,2.500E-004,4.812E-002,0.000,0.000,0.224,0.000
 ZoneInfiltration Airflow Stats Nominal, CORRIDORFLR4 INFILTRATION,ALWAYS ON DISCRETE,CORRIDORFLR4 ZN,125.42,1.3,3.595E-002,2.867E-004,2.500E-004,0.376,0.000,0.000,0.224,0.000
 ZoneInfiltration Airflow Stats Nominal, ELEVATORCOREFLR1 INFILTRATION,ALWAYS ON DISCRETE,ELEVATORCOREFLR1 ZN,15.05,1.5,1.533E-003,1.019E-004,2.500E-004,0.109,0.000,0.000,0.224,0.000
 ZoneInfiltration Airflow Stats Nominal, ELEVATORCOREFLR2 INFILTRATION,ALWAYS ON DISCRETE,ELEVATORCOREFLR2 ZN,15.05,1.5,1.254E-003,8.333E-005,2.500E-004,0.109,0.000,0.000,0.224,0.000
 ZoneInfiltration Airflow Stats Nominal, ELEVATORCOREFLR3 INFILTRATION,ALWAYS ON DISCRETE,ELEVATORCOREFLR3 ZN,15.05,1.5,1.254E-003,8.333E-005,2.500E-004,0.109,0.000,0.000,0.224,0.000
 ZoneInfiltration Airflow Stats Nominal, ELEVATORCOREFLR4 INFILTRATION,ALWAYS ON DISCRETE,ELEVATORCOREFLR4 ZN,15.05,1.5,5.017E-003,3.333E-004,2.500E-004,0.437,0.000,0.000,0.224,0.000
 ZoneInfiltration Airflow Stats Nominal, EMPLOYEELOUNGEFLR1 INFILTRATION,ALWAYS ON DISCRETE,EMPLOYEELOUNGEFLR1 ZN,32.61,3.3,3.321E-003,1.019E-004,2.500E-004,0.109,0.000,0.000,0.224,0.000
 ZoneInfiltration Airflow Stats Nominal, EXERCISECENTERFLR1 INFILTRATION,ALWAYS ON DISCRETE,EXERCISECENTERFLR1 ZN,32.61,6.5,3.321E-003,1.019E-004,2.500E-004,0.109,0.000,0.000,0.224,0.000
 ZoneInfiltration Airflow Stats Nominal, FRONTLOUNGEFLR1 INFILTRATION,ALWAYS ON DISCRETE,FRONTLOUNGEFLR1 ZN,163.06,16.3,2.350E-002,1.442E-004,2.500E-004,0.155,0.000,0.000,0.224,0.000
 ZoneInfiltration Airflow Stats Nominal, FRONTOFFICEFLR1 INFILTRATION,ALWAYS ON DISCRETE,FRONTOFFICEFLR1 ZN,130.44,6.5,1.329E-002,1.019E-004,2.500E-004,0.109,0.000,0.000,0.224,0.000
 ZoneInfiltration Airflow Stats Nominal, FRONTSTAIRSFLR1 INFILTRATION,ALWAYS ON DISCRETE,FRONTSTAIRSFLR1 ZN,20.07,0.1,8.942E-003,4.456E-004,2.500E-004,0.478,0.000,0.000,0.224,0.000
 ZoneInfiltration Airflow Stats Nominal, FRONTSTAIRSFLR2 INFILTRATION,ALWAYS ON DISCRETE,FRONTSTAIRSFLR2 ZN,20.07,0.1,7.316E-003,3.646E-004,2.500E-004,0.478,0.000,0.000,0.224,0.000
 ZoneInfiltration Airflow Stats Nominal, FRONTSTAIRSFLR3 INFILTRATION,ALWAYS ON DISCRETE,FRONTSTAIRSFLR3 ZN,20.07,0.1,7.316E-003,3.646E-004,2.500E-004,0.478,0.000,0.000,0.224,0.000
 ZoneInfiltration Airflow Stats Nominal, FRONTSTAIRSFLR4 INFILTRATION,ALWAYS ON DISCRETE,FRONTSTAIRSFLR4 ZN,20.07,0.1,1.233E-002,6.146E-004,2.500E-004,0.807,0.000,0.000,0.224,0.000
 ZoneInfiltration Airflow Stats Nominal, FRONTSTORAGEFLR1 INFILTRATION,ALWAYS ON DISCRETE,FRONTSTORAGEFLR1 ZN,12.54,0.1,1.277E-003,1.019E-004,2.500E-004,0.109,0.000,0.000,0.224,0.000
 ZoneInfiltration Airflow Stats Nominal, FRONTSTORAGEFLR2 INFILTRATION,ALWAYS ON DISCRETE,FRONTSTORAGEFLR2 ZN,12.54,0.1,1.045E-003,8.333E-005,2.500E-004,0.109,0.000,0.000,0.224,0.000
 ZoneInfiltration Airflow Stats Nominal, FRONTSTORAGEFLR3 INFILTRATION,ALWAYS ON DISCRETE,FRONTSTORAGEFLR3 ZN,12.54,0.1,1.045E-003,8.333E-005,2.500E-004,0.109,0.000,0.000,0.224,0.000
 ZoneInfiltration Airflow Stats Nominal, FRONTSTORAGEFLR4 INFILTRATION,ALWAYS ON DISCRETE,FRONTSTORAGEFLR4 ZN,12.54,0.1,4.181E-003,3.333E-004,2.500E-004,0.437,0.000,0.000,0.224,0.000
 ZoneInfiltration Airflow Stats Nominal, GUESTROOM101 INFILTRATION,ALWAYS ON DISCRETE,GUESTROOM101 ZN,32.61,1.3,3.321E-003,1.018E-004,2.500E-004,0.109,0.000,0.000,0.224,0.000
 ZoneInfiltration Airflow Stats Nominal, GUESTROOM102 INFILTRATION,ALWAYS ON DISCRETE,GUESTROOM102 ZN,32.61,1.3,3.321E-003,1.018E-004,2.500E-004,0.109,0.000,0.000,0.224,0.000
 ZoneInfiltration Airflow Stats Nominal, GUESTROOM103 INFILTRATION,ALWAYS ON DISCRETE,GUESTROOM103 ZN,32.61,1.3,3.321E-003,1.018E-004,2.500E-004,0.109,0.000,0.000,0.224,0.000
 ZoneInfiltration Airflow Stats Nominal, GUESTROOM104 INFILTRATION,ALWAYS ON DISCRETE,GUESTROOM104 ZN,32.61,1.3,3.321E-003,1.019E-004,2.500E-004,0.109,0.000,0.000,0.224,0.000
 ZoneInfiltration Airflow Stats Nominal, GUESTROOM105 INFILTRATION,ALWAYS ON DISCRETE,GUESTROOM105 ZN,32.61,1.3,3.321E-003,1.019E-004,2.500E-004,0.109,0.000,0.000,0.224,0.000
 ZoneInfiltration Airflow Stats Nominal, GUESTROOM201 INFILTRATION,ALWAYS ON DISCRETE,GUESTROOM201 ZN,32.61,1.3,8.362E-003,2.564E-004,2.500E-004,0.336,0.000,0.000,0.224,0.000
 ZoneInfiltration Airflow Stats Nominal, GUESTROOM202_205 INFILTRATION,ALWAYS ON DISCRETE,GUESTROOM202_205 ZN,130.45,5.2,1.087E-002,8.333E-005,2.500E-004,0.109,0.000,0.000,0.224,0.000
 ZoneInfiltration Airflow Stats Nominal, GUESTROOM206_208 INFILTRATION,ALWAYS ON DISCRETE,GUESTROOM206_208 ZN,105.36,4.2,8.779E-003,8.333E-005,2.500E-004,0.109,0.000,0.000,0.224,0.000
 ZoneInfiltration Airflow Stats Nominal, GUESTROOM209_212 INFILTRATION,ALWAYS ON DISCRETE,GUESTROOM209_212 ZN,130.45,5.2,1.087E-002,8.333E-005,2.500E-004,0.109,0.000,0.000,0.224,0.000
 ZoneInfiltration Airflow Stats Nominal, GUESTROOM213 INFILTRATION,ALWAYS ON DISCRETE,GUESTROOM213 ZN,32.61,1.3,2.717E-003,8.333E-005,2.500E-004,0.109,0.000,0.000,0.224,0.000
 ZoneInfiltration Airflow Stats Nominal, GUESTROOM214 INFILTRATION,ALWAYS ON DISCRETE,GUESTROOM214 ZN,32.61,1.3,2.717E-003,8.333E-005,2.500E-004,0.109,0.000,0.000,0.224,0.000
 ZoneInfiltration Airflow Stats Nominal, GUESTROOM215_218 INFILTRATION,ALWAYS ON DISCRETE,GUESTROOM215_218 ZN,130.44,5.2,1.087E-002,8.333E-005,2.500E-004,0.109,0.000,0.000,0.224,0.000
 ZoneInfiltration Airflow Stats Nominal, GUESTROOM219 INFILTRATION,ALWAYS ON DISCRETE,GUESTROOM219 ZN,32.61,1.3,2.717E-003,8.333E-005,2.500E-004,0.109,0.000,0.000,0.224,0.000
 ZoneInfiltration Airflow Stats Nominal, GUESTROOM220_223 INFILTRATION,ALWAYS ON DISCRETE,GUESTROOM220_223 ZN,130.44,5.2,1.087E-002,8.333E-005,2.500E-004,0.109,0.000,0.000,0.224,0.000
 ZoneInfiltration Airflow Stats Nominal, GUESTROOM224 INFILTRATION,ALWAYS ON DISCRETE,GUESTROOM224 ZN,32.61,1.3,2.717E-003,8.333E-005,2.500E-004,0.109,0.000,0.000,0.224,0.000
 ZoneInfiltration Airflow Stats Nominal, GUESTROOM301 INFILTRATION,ALWAYS ON DISCRETE,GUESTROOM301 ZN,32.61,1.3,8.362E-003,2.564E-004,2.500E-004,0.336,0.000,0.000,0.224,0.000
 ZoneInfiltration Airflow Stats Nominal, GUESTROOM302_305 INFILTRATION,ALWAYS ON DISCRETE,GUESTROOM302_305 ZN,130.45,5.2,1.087E-002,8.333E-005,2.500E-004,0.109,0.000,0.000,0.224,0.000
 ZoneInfiltration Airflow Stats Nominal, GUESTROOM306_308 INFILTRATION,ALWAYS ON DISCRETE,GUESTROOM306_308 ZN,105.36,4.2,8.779E-003,8.333E-005,2.500E-004,0.109,0.000,0.000,0.224,0.000
 ZoneInfiltration Airflow Stats Nominal, GUESTROOM309_312 INFILTRATION,ALWAYS ON DISCRETE,GUESTROOM309_312 ZN,130.45,5.2,1.087E-002,8.333E-005,2.500E-004,0.109,0.000,0.000,0.224,0.000
 ZoneInfiltration Airflow Stats Nominal, GUESTROOM313 INFILTRATION,ALWAYS ON DISCRETE,GUESTROOM313 ZN,32.61,1.3,2.717E-003,8.333E-005,2.500E-004,0.109,0.000,0.000,0.224,0.000
 ZoneInfiltration Airflow Stats Nominal, GUESTROOM314 INFILTRATION,ALWAYS ON DISCRETE,GUESTROOM314 ZN,32.61,1.3,2.717E-003,8.333E-005,2.500E-004,0.109,0.000,0.000,0.224,0.000
 ZoneInfiltration Airflow Stats Nominal, GUESTROOM315_318 INFILTRATION,ALWAYS ON DISCRETE,GUESTROOM315_318 ZN,130.44,5.2,1.087E-002,8.333E-005,2.500E-004,0.109,0.000,0.000,0.224,0.000
 ZoneInfiltration Airflow Stats Nominal, GUESTROOM319 INFILTRATION,ALWAYS ON DISCRETE,GUESTROOM319 ZN,32.61,1.3,2.717E-003,8.333E-005,2.500E-004,0.109,0.000,0.000,0.224,0.000
 ZoneInfiltration Airflow Stats Nominal, GUESTROOM320_323 INFILTRATION,ALWAYS ON DISCRETE,GUESTROOM320_323 ZN,130.44,5.2,1.087E-002,8.333E-005,2.500E-004,0.109,0.000,0.000,0.224,0.000
 ZoneInfiltration Airflow Stats Nominal, GUESTROOM324 INFILTRATION,ALWAYS ON DISCRETE,GUESTROOM324 ZN,32.61,1.3,2.717E-003,8.333E-005,2.500E-004,0.109,0.000,0.000,0.224,0.000
 ZoneInfiltration Airflow Stats Nominal, GUESTROOM401 INFILTRATION,ALWAYS ON DISCRETE,GUESTROOM401 ZN,32.61,1.3,1.651E-002,5.064E-004,2.500E-004,0.665,0.000,0.000,0.224,0.000
 ZoneInfiltration Airflow Stats Nominal, GUESTROOM402_405 INFILTRATION,ALWAYS ON DISCRETE,GUESTROOM402_405 ZN,130.45,5.2,4.348E-002,3.333E-004,2.500E-004,0.437,0.000,0.000,0.224,0.000
 ZoneInfiltration Airflow Stats Nominal, GUESTROOM406_408 INFILTRATION,ALWAYS ON DISCRETE,GUESTROOM406_408 ZN,105.36,4.2,3.512E-002,3.333E-004,2.500E-004,0.437,0.000,0.000,0.224,0.000
 ZoneInfiltration Airflow Stats Nominal, GUESTROOM409_412 INFILTRATION,ALWAYS ON DISCRETE,GUESTROOM409_412 ZN,130.45,5.2,4.348E-002,3.333E-004,2.500E-004,0.437,0.000,0.000,0.224,0.000
 ZoneInfiltration Airflow Stats Nominal, GUESTROOM413 INFILTRATION,ALWAYS ON DISCRETE,GUESTROOM413 ZN,32.61,1.3,1.087E-002,3.333E-004,2.500E-004,0.437,0.000,0.000,0.224,0.000
 ZoneInfiltration Airflow Stats Nominal, GUESTROOM414 INFILTRATION,ALWAYS ON DISCRETE,GUESTROOM414 ZN,32.61,1.3,1.087E-002,3.333E-004,2.500E-004,0.437,0.000,0.000,0.224,0.000
 ZoneInfiltration Airflow Stats Nominal, GUESTROOM415_418 INFILTRATION,ALWAYS ON DISCRETE,GUESTROOM415_418 ZN,130.44,5.2,4.348E-002,3.333E-004,2.500E-004,0.437,0.000,0.000,0.224,0.000
 ZoneInfiltration Airflow Stats Nominal, GUESTROOM419 INFILTRATION,ALWAYS ON DISCRETE,GUESTROOM419 ZN,32.61,1.3,1.087E-002,3.333E-004,2.500E-004,0.437,0.000,0.000,0.224,0.000
 ZoneInfiltration Airflow Stats Nominal, GUESTROOM420_423 INFILTRATION,ALWAYS ON DISCRETE,GUESTROOM420_423 ZN,130.44,5.2,4.348E-002,3.333E-004,2.500E-004,0.437,0.000,0.000,0.224,0.000
 ZoneInfiltration Airflow Stats Nominal, GUESTROOM424 INFILTRATION,ALWAYS ON DISCRETE,GUESTROOM424 ZN,32.61,1.3,1.087E-002,3.333E-004,2.500E-004,0.437,0.000,0.000,0.224,0.000
 ZoneInfiltration Airflow Stats Nominal, LAUNDRYROOMFLR1 INFILTRATION,ALWAYS ON DISCRETE,LAUNDRYROOMFLR1 ZN,97.83,1.0,9.964E-003,1.019E-004,2.500E-004,0.109,0.000,0.000,0.224,0.000
 ZoneInfiltration Airflow Stats Nominal, MECHANICALROOMFLR1 INFILTRATION,ALWAYS ON DISCRETE,MECHANICALROOMFLR1 ZN,32.61,0.2,3.321E-003,1.018E-004,2.500E-004,0.109,0.000,0.000,0.224,0.000
 ZoneInfiltration Airflow Stats Nominal, MEETINGROOMFLR1 INFILTRATION,ALWAYS ON DISCRETE,MEETINGROOMFLR1 ZN,80.27,0.4,8.175E-003,1.018E-004,2.500E-004,0.109,0.000,0.000,0.224,0.000
 ZoneInfiltration Airflow Stats Nominal, REARSTAIRSFLR1 INFILTRATION,ALWAYS ON DISCRETE,REARSTAIRSFLR1 ZN,20.07,0.1,8.942E-003,4.455E-004,2.500E-004,0.478,0.000,0.000,0.224,0.000
 ZoneInfiltration Airflow Stats Nominal, REARSTAIRSFLR2 INFILTRATION,ALWAYS ON DISCRETE,REARSTAIRSFLR2 ZN,20.07,0.1,7.317E-003,3.645E-004,2.500E-004,0.478,0.000,0.000,0.224,0.000
 ZoneInfiltration Airflow Stats Nominal, REARSTAIRSFLR3 INFILTRATION,ALWAYS ON DISCRETE,REARSTAIRSFLR3 ZN,20.07,0.1,7.317E-003,3.645E-004,2.500E-004,0.478,0.000,0.000,0.224,0.000
[...]
 Warmup Convergence Information,GUESTROOM224 ZN,SizingPeriod: VANCOUVER INTL AP ANN CLG .4% CONDNS DB=>MWB,2.5366876011E-003,6.7307918083E-003,Pass,Pass,2.1793559425E-002,2.2745587387E-002,Pass,Pass
 Warmup Convergence Information,GUESTROOM301 ZN,SizingPeriod: VANCOUVER INTL AP ANN CLG .4% CONDNS DB=>MWB,5.7171169424E-003,1.2170672768E-002,Pass,Pass,2.0985742290E-002,2.4253453895E-002,Pass,Pass
 Warmup Convergence Information,GUESTROOM302_305 ZN,SizingPeriod: VANCOUVER INTL AP ANN CLG .4% CONDNS DB=>MWB,8.4585622330E-003,1.5865107919E-002,Pass,Pass,2.1605920008E-002,2.8927940104E-002,Pass,Pass
 Warmup Convergence Information,GUESTROOM306_308 ZN,SizingPeriod: VANCOUVER INTL AP ANN CLG .4% CONDNS DB=>MWB,9.8923837868E-003,1.7195643970E-002,Pass,Pass,2.2459582019E-002,3.0883006971E-002,Pass,Pass
 Warmup Convergence Information,GUESTROOM309_312 ZN,SizingPeriod: VANCOUVER INTL AP ANN CLG .4% CONDNS DB=>MWB,1.0663179049E-002,1.7808438042E-002,Pass,Pass,2.4318113331E-002,3.3364884313E-002,Pass,Pass
 Warmup Convergence Information,GUESTROOM313 ZN,SizingPeriod: VANCOUVER INTL AP ANN CLG .4% CONDNS DB=>MWB,7.8445065845E-003,1.3815638014E-002,Pass,Pass,2.1874221580E-002,3.1589622803E-002,Pass,Pass
 Warmup Convergence Information,GUESTROOM314 ZN,SizingPeriod: VANCOUVER INTL AP ANN CLG .4% CONDNS DB=>MWB,4.8222973917E-003,1.1366709158E-002,Pass,Pass,2.3570264300E-002,2.4792240170E-002,Pass,Pass
 Warmup Convergence Information,GUESTROOM315_318 ZN,SizingPeriod: VANCOUVER INTL AP ANN CLG .4% CONDNS DB=>MWB,7.2509931963E-003,1.5372917801E-002,Pass,Pass,2.3734435681E-002,2.6219313116E-002,Pass,Pass
 Warmup Convergence Information,GUESTROOM319 ZN,SizingPeriod: VANCOUVER INTL AP ANN CLG .4% CONDNS DB=>MWB,1.0651646903E-002,1.8013593156E-002,Pass,Pass,3.0007098312E-002,3.2956487541E-002,Pass,Pass
 Warmup Convergence Information,GUESTROOM320_323 ZN,SizingPeriod: VANCOUVER INTL AP ANN CLG .4% CONDNS DB=>MWB,6.5668037086E-003,1.4775903612E-002,Pass,Pass,2.4268467229E-002,2.7316809239E-002,Pass,Pass
 Warmup Convergence Information,GUESTROOM324 ZN,SizingPeriod: VANCOUVER INTL AP ANN CLG .4% CONDNS DB=>MWB,5.0643146105E-003,1.1750544267E-002,Pass,Pass,2.3782686161E-002,2.5367342629E-002,Pass,Pass
 Warmup Convergence Information,GUESTROOM401 ZN,SizingPeriod: VANCOUVER INTL AP ANN CLG .4% CONDNS DB=>MWB,2.8121989886E-002,4.1658621597E-002,Pass,Pass,3.2403562181E-002,3.9819706850E-002,Pass,Pass
 Warmup Convergence Information,GUESTROOM402_405 ZN,SizingPeriod: VANCOUVER INTL AP ANN CLG .4% CONDNS DB=>MWB,3.2742532046E-002,4.7390595992E-002,Pass,Pass,3.1415198174E-002,3.7779253060E-002,Pass,Pass
 Warmup Convergence Information,GUESTROOM406_408 ZN,SizingPeriod: VANCOUVER INTL AP ANN CLG .4% CONDNS DB=>MWB,3.3582093049E-002,4.7920415233E-002,Pass,Pass,3.1645991931E-002,4.0775249973E-002,Pass,Pass
 Warmup Convergence Information,GUESTROOM409_412 ZN,SizingPeriod: VANCOUVER INTL AP ANN CLG .4% CONDNS DB=>MWB,3.3629376653E-002,4.7650535044E-002,Pass,Pass,3.1543087492E-002,3.9588843671E-002,Pass,Pass
 Warmup Convergence Information,GUESTROOM413 ZN,SizingPeriod: VANCOUVER INTL AP ANN CLG .4% CONDNS DB=>MWB,2.8707717129E-002,4.1735831726E-002,Pass,Pass,3.2550376871E-002,4.9881397746E-002,Pass,Pass
 Warmup Convergence Information,GUESTROOM414 ZN,SizingPeriod: VANCOUVER INTL AP ANN CLG .4% CONDNS DB=>MWB,2.5941738050E-002,4.1498898988E-002,Pass,Pass,3.9083259429E-002,4.1322143665E-002,Pass,Pass
 Warmup Convergence Information,GUESTROOM415_418 ZN,SizingPeriod: VANCOUVER INTL AP ANN CLG .4% CONDNS DB=>MWB,3.0636500072E-002,4.9009926870E-002,Pass,Pass,3.9109902756E-002,4.2806375937E-002,Pass,Pass
 Warmup Convergence Information,GUESTROOM419 ZN,SizingPeriod: VANCOUVER INTL AP ANN CLG .4% CONDNS DB=>MWB,3.3433091185E-002,4.9935326520E-002,Pass,Pass,4.1822338266E-002,5.1626132277E-002,Pass,Pass
 Warmup Convergence Information,GUESTROOM420_423 ZN,SizingPeriod: VANCOUVER INTL AP ANN CLG .4% CONDNS DB=>MWB,3.0200329075E-002,4.9116363652E-002,Pass,Pass,3.9376361850E-002,4.9577814888E-002,Pass,Pass
 Warmup Convergence Information,GUESTROOM424 ZN,SizingPeriod: VANCOUVER INTL AP ANN CLG .4% CONDNS DB=>MWB,2.6625404622E-002,4.1962939775E-002,Pass,Pass,3.9376195856E-002,4.5017822147E-002,Pass,Pass
 Warmup Convergence Information,LAUNDRYROOMFLR1 ZN,SizingPeriod: VANCOUVER INTL AP ANN CLG .4% CONDNS DB=>MWB,1.3254890320E-002,2.1491523650E-002,Pass,Pass,4.0128704280E-002,5.3661949497E-002,Pass,Pass
 Warmup Convergence Information,MECHANICALROOMFLR1 ZN,SizingPeriod: VANCOUVER INTL AP ANN CLG .4% CONDNS DB=>MWB,1.1265997456E-002,1.6131805084E-002,Pass,Pass,3.1275161561E-002,4.5414289725E-002,Pass,Pass
 Warmup Convergence Information,MEETINGROOMFLR1 ZN,SizingPeriod: VANCOUVER INTL AP ANN CLG .4% CONDNS DB=>MWB,1.3652253710E-002,2.0396917226E-002,Pass,Pass,3.0365034462E-002,4.3605983111E-002,Pass,Pass
 Warmup Convergence Information,REARSTAIRSFLR1 ZN,SizingPeriod: VANCOUVER INTL AP ANN CLG .4% CONDNS DB=>MWB,3.4833515503E-003,8.6980915887E-003,Pass,Pass,2.7381621167E-002,3.2354994030E-002,Pass,Pass
 Warmup Convergence Information,REARSTAIRSFLR2 ZN,SizingPeriod: VANCOUVER INTL AP ANN CLG .4% CONDNS DB=>MWB,3.9433442255E-004,1.8208786926E-003,Pass,Pass,2.3017613038E-002,2.8156113001E-002,Pass,Pass
 Warmup Convergence Information,REARSTAIRSFLR3 ZN,SizingPeriod: VANCOUVER INTL AP ANN CLG .4% CONDNS DB=>MWB,1.5283520214E-003,4.9171857077E-003,Pass,Pass,2.5209705417E-002,2.9888760233E-002,Pass,Pass
 Warmup Convergence Information,REARSTAIRSFLR4 ZN,SizingPeriod: VANCOUVER INTL AP ANN CLG .4% CONDNS DB=>MWB,2.0622813048E-002,3.4861359337E-002,Pass,Pass,4.2132644225E-002,6.6572453455E-002,Pass,Pass
 Warmup Convergence Information,REARSTORAGEFLR1 ZN,SizingPeriod: VANCOUVER INTL AP ANN CLG .4% CONDNS DB=>MWB,7.2413309186E-003,1.2869605543E-002,Pass,Pass,2.8325033341E-002,3.9191460318E-002,Pass,Pass
 Warmup Convergence Information,REARSTORAGEFLR2 ZN,SizingPeriod: VANCOUVER INTL AP ANN CLG .4% CONDNS DB=>MWB,3.9683963402E-003,9.4904577797E-003,Pass,Pass,2.1575612216E-002,3.0168321624E-002,Pass,Pass
 Warmup Convergence Information,REARSTORAGEFLR3 ZN,SizingPeriod: VANCOUVER INTL AP ANN CLG .4% CONDNS DB=>MWB,5.0976735323E-003,1.0649070116E-002,Pass,Pass,2.4156303332E-002,2.9811763402E-002,Pass,Pass
 Warmup Convergence Information,REARSTORAGEFLR4 ZN,SizingPeriod: VANCOUVER INTL AP ANN CLG .4% CONDNS DB=>MWB,2.4430284775E-002,3.8424241317E-002,Pass,Pass,3.8454358524E-002,5.1157212470E-002,Pass,Pass
 Warmup Convergence Information,RESTROOMFLR1 ZN,SizingPeriod: VANCOUVER INTL AP ANN CLG .4% CONDNS DB=>MWB,1.9465910365E-014,1.7107364427E-014,Pass,Pass,2.2230361016E-002,3.4565456995E-002,Pass,Pass
Environment,VANCOUVER INTL AP ANN HTG 99.6% CONDNS DB,SizingPeriod:DesignDay,12/21,12/21,WinterDesignDay,1,N/A,N/A,N/A,N/A,N/A,N/A
Environment:Daylight Saving,No,SizingPeriod:DesignDay
Environment:Design Day Data,-6.10,0.00,DefaultMultipliers,101273,100,3.0,0.00,No,No
Environment:Design Day Misc,355,1232.8,0.1424,5.7719E-002,1.0,2.45,-23.5,ASHRAEClearSky
Environment:WarmupDays,  6
 Warmup Convergence Information,CORRIDORFLR1 ZN,SizingPeriod: VANCOUVER INTL AP ANN HTG 99.6% CONDNS DB,8.8868972821E-002,0.3385941502,Pass,Pass,6.2894747742E-002,0.1655988135,Pass,Pass
 Warmup Convergence Information,CORRIDORFLR2 ZN,SizingPeriod: VANCOUVER INTL AP ANN HTG 99.6% CONDNS DB,8.8774748567E-002,0.3360583291,Pass,Pass,8.3305233094E-002,0.2367592593,Pass,Pass
 Warmup Convergence Information,CORRIDORFLR3 ZN,SizingPeriod: VANCOUVER INTL AP ANN HTG 99.6% CONDNS DB,8.8072961447E-002,0.3364319434,Pass,Pass,5.6917472230E-002,0.1488548078,Pass,Pass
 Warmup Convergence Information,CORRIDORFLR4 ZN,SizingPeriod: VANCOUVER INTL AP ANN HTG 99.6% CONDNS DB,8.4359901864E-002,0.3673750799,Pass,Pass,0.1484276771,0.4860996071,Pass,Pass
 Warmup Convergence Information,ELEVATORCOREFLR1 ZN,SizingPeriod: VANCOUVER INTL AP ANN HTG 99.6% CONDNS DB,8.3333333333E-002,0.4680193754,Pass,Pass,1.0620192226,9.0893467752,Pass,Pass
 Warmup Convergence Information,ELEVATORCOREFLR2 ZN,SizingPeriod: VANCOUVER INTL AP ANN HTG 99.6% CONDNS DB,8.3333333333E-002,0.4726429539,Pass,Pass,0.1941854596,0.3261356003,Pass,Pass
 Warmup Convergence Information,ELEVATORCOREFLR3 ZN,SizingPeriod: VANCOUVER INTL AP ANN HTG 99.6% CONDNS DB,8.3333333333E-002,0.4726778728,Pass,Pass,0.4135918155,2.7485353564,Pass,Pass
 Warmup Convergence Information,ELEVATORCOREFLR4 ZN,SizingPeriod: VANCOUVER INTL AP ANN HTG 99.6% CONDNS DB,8.3333333333E-002,0.4733200848,Pass,Pass,0.4037791710,2.9014786367,Pass,Pass
 Warmup Convergence Information,EMPLOYEELOUNGEFLR1 ZN,SizingPeriod: VANCOUVER INTL AP ANN HTG 99.6% CONDNS DB,8.4711783480E-002,0.4129867374,Pass,Pass,0.2540904559,0.5780026649,Pass,Pass
 Warmup Convergence Information,EXERCISECENTERFLR1 ZN,SizingPeriod: VANCOUVER INTL AP ANN HTG 99.6% CONDNS DB,8.3333333333E-002,0.4710832754,Pass,Pass,0.3166565144,0.7251170229,Pass,Pass
 Warmup Convergence Information,FRONTLOUNGEFLR1 ZN,SizingPeriod: VANCOUVER INTL AP ANN HTG 99.6% CONDNS DB,8.4489341783E-002,0.4276254035,Pass,Pass,0.7317143035,4.1851744917,Pass,Pass
 Warmup Convergence Information,FRONTOFFICEFLR1 ZN,SizingPeriod: VANCOUVER INTL AP ANN HTG 99.6% CONDNS DB,8.9078558622E-002,0.3655343963,Pass,Pass,0.4299325466,1.4304459141,Pass,Pass
 Warmup Convergence Information,FRONTSTAIRSFLR1 ZN,SizingPeriod: VANCOUVER INTL AP ANN HTG 99.6% CONDNS DB,8.5769246397E-002,0.3654985079,Pass,Pass,0.1736098105,0.5287307569,Pass,Pass
 Warmup Convergence Information,FRONTSTAIRSFLR2 ZN,SizingPeriod: VANCOUVER INTL AP ANN HTG 99.6% CONDNS DB,8.5137867663E-002,0.3697935718,Pass,Pass,0.4829014244,3.3990047899,Pass,Pass
 Warmup Convergence Information,FRONTSTAIRSFLR3 ZN,SizingPeriod: VANCOUVER INTL AP ANN HTG 99.6% CONDNS DB,8.4795910236E-002,0.3724524762,Pass,Pass,0.1949649363,0.6967072767,Pass,Pass
 Warmup Convergence Information,FRONTSTAIRSFLR4 ZN,SizingPeriod: VANCOUVER INTL AP ANN HTG 99.6% CONDNS DB,8.3487817800E-002,0.4027712808,Pass,Pass,0.5092374454,3.5449739337,Pass,Pass
 Warmup Convergence Information,FRONTSTORAGEFLR1 ZN,SizingPeriod: VANCOUVER INTL AP ANN HTG 99.6% CONDNS DB,8.6666362640E-002,0.3400720477,Pass,Pass,9.5662316611E-002,0.3036469325,Pass,Pass
 Warmup Convergence Information,FRONTSTORAGEFLR2 ZN,SizingPeriod: VANCOUVER INTL AP ANN HTG 99.6% CONDNS DB,8.6260087448E-002,0.3325373784,Pass,Pass,6.0669720587E-002,0.1646834709,Pass,Pass
 Warmup Convergence Information,FRONTSTORAGEFLR3 ZN,SizingPeriod: VANCOUVER INTL AP ANN HTG 99.6% CONDNS DB,8.6005403333E-002,0.3336871350,Pass,Pass,6.8805060811E-002,0.1882682268,Pass,Pass
 Warmup Convergence Information,FRONTSTORAGEFLR4 ZN,SizingPeriod: VANCOUVER INTL AP ANN HTG 99.6% CONDNS DB,8.3856307626E-002,0.3639649689,Pass,Pass,0.1348906523,0.4492463368,Pass,Pass
 Warmup Convergence Information,GUESTROOM101 ZN,SizingPeriod: VANCOUVER INTL AP ANN HTG 99.6% CONDNS DB,8.6730238224E-002,0.3674032909,Pass,Pass,7.3849941713E-002,0.1810052632,Pass,Pass
 Warmup Convergence Information,GUESTROOM102 ZN,SizingPeriod: VANCOUVER INTL AP ANN HTG 99.6% CONDNS DB,8.6704062523E-002,0.3677186450,Pass,Pass,7.4416265845E-002,0.1789925531,Pass,Pass
 Warmup Convergence Information,GUESTROOM103 ZN,SizingPeriod: VANCOUVER INTL AP ANN HTG 99.6% CONDNS DB,8.6596619136E-002,0.3687873334,Pass,Pass,7.7069795695E-002,0.1764984552,Pass,Pass
 Warmup Convergence Information,GUESTROOM104 ZN,SizingPeriod: VANCOUVER INTL AP ANN HTG 99.6% CONDNS DB,8.6599844260E-002,0.3685949168,Pass,Pass,7.6852000414E-002,0.1760975598,Pass,Pass
 Warmup Convergence Information,GUESTROOM105 ZN,SizingPeriod: VANCOUVER INTL AP ANN HTG 99.6% CONDNS DB,8.6692601732E-002,0.3663575386,Pass,Pass,7.3836908338E-002,0.1725335831,Pass,Pass
 Warmup Convergence Information,GUESTROOM201 ZN,SizingPeriod: VANCOUVER INTL AP ANN HTG 99.6% CONDNS DB,8.4812613230E-002,0.3962262158,Pass,Pass,0.1884112671,1.0705135879,Pass,Pass
 Warmup Convergence Information,GUESTROOM202_205 ZN,SizingPeriod: VANCOUVER INTL AP ANN HTG 99.6% CONDNS DB,8.6846297413E-002,0.3870373044,Pass,Pass,0.1634228626,0.5501011843,Pass,Pass
 Warmup Convergence Information,GUESTROOM206_208 ZN,SizingPeriod: VANCOUVER INTL AP ANN HTG 99.6% CONDNS DB,8.6546572347E-002,0.3890162328,Pass,Pass,0.1169431749,0.3113179981,Pass,Pass
 Warmup Convergence Information,GUESTROOM209_212 ZN,SizingPeriod: VANCOUVER INTL AP ANN HTG 99.6% CONDNS DB,8.6659667549E-002,0.3885384560,Pass,Pass,0.1358446865,0.3923051089,Pass,Pass
 Warmup Convergence Information,GUESTROOM213 ZN,SizingPeriod: VANCOUVER INTL AP ANN HTG 99.6% CONDNS DB,8.5889540150E-002,0.3773160327,Pass,Pass,6.7255886004E-002,0.1604812007,Pass,Pass
 Warmup Convergence Information,GUESTROOM214 ZN,SizingPeriod: VANCOUVER INTL AP ANN HTG 99.6% CONDNS DB,8.5894786572E-002,0.3772408680,Pass,Pass,6.7322077941E-002,0.1609487748,Pass,Pass
 Warmup Convergence Information,GUESTROOM215_218 ZN,SizingPeriod: VANCOUVER INTL AP ANN HTG 99.6% CONDNS DB,8.6664222343E-002,0.3883427565,Pass,Pass,0.1363671568,0.3945096674,Pass,Pass
 Warmup Convergence Information,GUESTROOM219 ZN,SizingPeriod: VANCOUVER INTL AP ANN HTG 99.6% CONDNS DB,8.5991262598E-002,0.3797852516,Pass,Pass,7.3759978746E-002,0.1712596263,Pass,Pass
 Warmup Convergence Information,GUESTROOM220_223 ZN,SizingPeriod: VANCOUVER INTL AP ANN HTG 99.6% CONDNS DB,8.6675576853E-002,0.3880679524,Pass,Pass,0.1406343583,0.4088596358,Pass,Pass
 Warmup Convergence Information,GUESTROOM224 ZN,SizingPeriod: VANCOUVER INTL AP ANN HTG 99.6% CONDNS DB,8.6036464381E-002,0.3759927845,Pass,Pass,7.8462032478E-002,0.1798452018,Pass,Pass
 Warmup Convergence Information,GUESTROOM301 ZN,SizingPeriod: VANCOUVER INTL AP ANN HTG 99.6% CONDNS DB,8.4434056490E-002,0.4020950405,Pass,Pass,0.2240993953,0.6828591738,Pass,Pass
 Warmup Convergence Information,GUESTROOM302_305 ZN,SizingPeriod: VANCOUVER INTL AP ANN HTG 99.6% CONDNS DB,8.6317171254E-002,0.3905685145,Pass,Pass,9.8195934461E-002,0.2681572096,Pass,Pass
 Warmup Convergence Information,GUESTROOM306_308 ZN,SizingPeriod: VANCOUVER INTL AP ANN HTG 99.6% CONDNS DB,8.6134404897E-002,0.3913415586,Pass,Pass,8.5336797646E-002,0.2334953991,Pass,Pass
 Warmup Convergence Information,GUESTROOM309_312 ZN,SizingPeriod: VANCOUVER INTL AP ANN HTG 99.6% CONDNS DB,8.6306360805E-002,0.3906465282,Pass,Pass,9.7507313485E-002,0.2658716899,Pass,Pass
 Warmup Convergence Information,GUESTROOM313 ZN,SizingPeriod: VANCOUVER INTL AP ANN HTG 99.6% CONDNS DB,8.5614659366E-002,0.3789178743,Pass,Pass,6.6118441783E-002,0.1535847060,Pass,Pass
 Warmup Convergence Information,GUESTROOM314 ZN,SizingPeriod: VANCOUVER INTL AP ANN HTG 99.6% CONDNS DB,8.5618308751E-002,0.3788515105,Pass,Pass,6.6019818146E-002,0.1536722117,Pass,Pass
 Warmup Convergence Information,GUESTROOM315_318 ZN,SizingPeriod: VANCOUVER INTL AP ANN HTG 99.6% CONDNS DB,8.6314630625E-002,0.3905039485,Pass,Pass,9.8710872008E-002,0.2694456616,Pass,Pass
 Warmup Convergence Information,GUESTROOM319 ZN,SizingPeriod: VANCOUVER INTL AP ANN HTG 99.6% CONDNS DB,8.5700043415E-002,0.3811121163,Pass,Pass,6.6459885982E-002,0.1508137390,Pass,Pass
 Warmup Convergence Information,GUESTROOM320_323 ZN,SizingPeriod: VANCOUVER INTL AP ANN HTG 99.6% CONDNS DB,8.6343941412E-002,0.3900087633,Pass,Pass,0.1032126196,0.2802184540,Pass,Pass
 Warmup Convergence Information,GUESTROOM324 ZN,SizingPeriod: VANCOUVER INTL AP ANN HTG 99.6% CONDNS DB,8.5764927896E-002,0.3767772954,Pass,Pass,6.7353761560E-002,0.1539894145,Pass,Pass
 Warmup Convergence Information,GUESTROOM401 ZN,SizingPeriod: VANCOUVER INTL AP ANN HTG 99.6% CONDNS DB,8.3387963733E-002,0.4220316845,Pass,Pass,0.3699765948,2.9642032217,Pass,Pass
 Warmup Convergence Information,GUESTROOM402_405 ZN,SizingPeriod: VANCOUVER INTL AP ANN HTG 99.6% CONDNS DB,8.4058714104E-002,0.4137200572,Pass,Pass,0.2086772425,1.0229730620,Pass,Pass
 Warmup Convergence Information,GUESTROOM406_408 ZN,SizingPeriod: VANCOUVER INTL AP ANN HTG 99.6% CONDNS DB,8.3996707942E-002,0.4142613502,Pass,Pass,0.2183438319,1.0969132424,Pass,Pass
 Warmup Convergence Information,GUESTROOM409_412 ZN,SizingPeriod: VANCOUVER INTL AP ANN HTG 99.6% CONDNS DB,8.4072270854E-002,0.4135438444,Pass,Pass,0.1944526954,0.9190667029,Pass,Pass
 Warmup Convergence Information,GUESTROOM413 ZN,SizingPeriod: VANCOUVER INTL AP ANN HTG 99.6% CONDNS DB,8.3817001411E-002,0.4071049019,Pass,Pass,0.1723944334,0.8269673923,Pass,Pass
 Warmup Convergence Information,GUESTROOM414 ZN,SizingPeriod: VANCOUVER INTL AP ANN HTG 99.6% CONDNS DB,8.3817841577E-002,0.4070709959,Pass,Pass,0.1759570874,0.8572304839,Pass,Pass
 Warmup Convergence Information,GUESTROOM415_418 ZN,SizingPeriod: VANCOUVER INTL AP ANN HTG 99.6% CONDNS DB,8.4077502953E-002,0.4134666086,Pass,Pass,0.1882641120,0.8750050087,Pass,Pass
 Warmup Convergence Information,GUESTROOM419 ZN,SizingPeriod: VANCOUVER INTL AP ANN HTG 99.6% CONDNS DB,8.3867779152E-002,0.4103539671,Pass,Pass,0.1551902605,0.5537239706,Pass,Pass
 Warmup Convergence Information,GUESTROOM420_423 ZN,SizingPeriod: VANCOUVER INTL AP ANN HTG 99.6% CONDNS DB,8.4087707720E-002,0.4131762990,Pass,Pass,0.1697033163,0.7457073303,Pass,Pass
 Warmup Convergence Information,GUESTROOM424 ZN,SizingPeriod: VANCOUVER INTL AP ANN HTG 99.6% CONDNS DB,8.3871665105E-002,0.4057948435,Pass,Pass,0.2056209713,0.9841906950,Pass,Pass
 Warmup Convergence Information,LAUNDRYROOMFLR1 ZN,SizingPeriod: VANCOUVER INTL AP ANN HTG 99.6% CONDNS DB,8.9662520037E-002,0.3666856374,Pass,Pass,9.6533817584E-002,0.3086402968,Pass,Pass
 Warmup Convergence Information,MECHANICALROOMFLR1 ZN,SizingPeriod: VANCOUVER INTL AP ANN HTG 99.6% CONDNS DB,8.9607094062E-002,0.3442089813,Pass,Pass,6.8784973023E-002,0.1960004440,Pass,Pass
 Warmup Convergence Information,MEETINGROOMFLR1 ZN,SizingPeriod: VANCOUVER INTL AP ANN HTG 99.6% CONDNS DB,9.0094343695E-002,0.3611136249,Pass,Pass,8.7274863330E-002,0.2570357283,Pass,Pass
 Warmup Convergence Information,REARSTAIRSFLR1 ZN,SizingPeriod: VANCOUVER INTL AP ANN HTG 99.6% CONDNS DB,8.5692645870E-002,0.3660860971,Pass,Pass,0.1645368242,0.4643475605,Pass,Pass
 Warmup Convergence Information,REARSTAIRSFLR2 ZN,SizingPeriod: VANCOUVER INTL AP ANN HTG 99.6% CONDNS DB,8.5074787151E-002,0.3714722327,Pass,Pass,0.1649733143,0.4101386802,Pass,Pass
 Warmup Convergence Information,REARSTAIRSFLR3 ZN,SizingPeriod: VANCOUVER INTL AP ANN HTG 99.6% CONDNS DB,8.4725364456E-002,0.3740767836,Pass,Pass,0.1624659588,0.4200290086,Pass,Pass
 Warmup Convergence Information,REARSTAIRSFLR4 ZN,SizingPeriod: VANCOUVER INTL AP ANN HTG 99.6% CONDNS DB,8.3446616128E-002,0.4043883438,Pass,Pass,0.8927646443,7.7734165278,Pass,Pass
 Warmup Convergence Information,REARSTORAGEFLR1 ZN,SizingPeriod: VANCOUVER INTL AP ANN HTG 99.6% CONDNS DB,8.5362855191E-002,0.3698174170,Pass,Pass,0.1601959270,0.4411755782,Pass,Pass
 Warmup Convergence Information,REARSTORAGEFLR2 ZN,SizingPeriod: VANCOUVER INTL AP ANN HTG 99.6% CONDNS DB,8.4675844540E-002,0.3764978535,Pass,Pass,0.2517987032,1.1631317262,Pass,Pass
 Warmup Convergence Information,REARSTORAGEFLR3 ZN,SizingPeriod: VANCOUVER INTL AP ANN HTG 99.6% CONDNS DB,8.4456931465E-002,0.3797215441,Pass,Pass,1.1000207330,9.4459355875,Pass,Pass
 Warmup Convergence Information,REARSTORAGEFLR4 ZN,SizingPeriod: VANCOUVER INTL AP ANN HTG 99.6% CONDNS DB,8.3363492190E-002,0.4092545730,Pass,Pass,2.8332379297,27.0451149489,Pass,Pass
 Warmup Convergence Information,RESTROOMFLR1 ZN,SizingPeriod: VANCOUVER INTL AP ANN HTG 99.6% CONDNS DB,9.1179574470E-002,0.3382582597,Pass,Pass,0.1405324368,0.4314649373,Pass,Pass
! <Program Control Information:Threads/Parallel Sims>, Threading Supported,Maximum Number of Threads, Env Set Threads (OMP_NUM_THREADS), EP Env Set Threads (EP_OMP_NUM_THREADS), IDF Set Threads, Number of Threads Used (Interior Radiant Exchange), Number Nominal Surfaces, Number Parallel Sims
Program Control:Threads/Parallel Sims, No,1, N/A, N/A, N/A, N/A, N/A, N/A
End of Data
