Program Version,EnergyPlus, Version 8.9.0-eba93e8e1b, YMD=2018.09.18 17:35
! This file shows details about the branches, nodes, and other
! elements of the flow connections.
! This file is intended for use in "debugging" potential problems
! that may also be detected by the program, but may be more easily
! identified by "eye".
! This file is also intended to support software which draws a
! schematic diagram of the HVAC system.
! ===============================================================
! #Nodes,<Number of Unique Nodes>
 #Nodes,336
! <Node>,<NodeNumber>,<Node Name>,<Node Fluid Type>,<# Times Node Referenced After Definition>
 Node,1,NODE 3,Air,2
 Node,2,NODE 2,Air,2
 Node,3,NODE 6,Air,2
 Node,4,NODE 5,Air,2
 Node,5,NODE 9,Air,2
 Node,6,NODE 8,Air,2
 Node,7,NODE 12,Air,2
 Node,8,NODE 11,Air,2
 Node,9,NODE 15,Air,2
 Node,10,NODE 14,Air,2
 Node,11,NODE 18,Air,2
 Node,12,NODE 17,Air,2
 Node,13,NODE 21,Air,2
 Node,14,NODE 20,Air,2
 Node,15,NODE 24,Air,2
 Node,16,NODE 23,Air,2
 Node,17,NODE 27,Air,2
 Node,18,NODE 26,Air,2
 Node,19,NODE 30,Air,2
 Node,20,NODE 29,Air,2
 Node,21,NODE 33,Air,2
 Node,22,NODE 32,Air,2
 Node,23,NODE 36,Air,2
 Node,24,NODE 35,Air,2
 Node,25,NODE 39,Air,2
 Node,26,NODE 38,Air,2
 Node,27,NODE 42,Air,2
 Node,28,NODE 41,Air,2
 Node,29,NODE 45,Air,2
 Node,30,NODE 44,Air,2
 Node,31,NODE 48,Air,2
 Node,32,NODE 47,Air,2
 Node,33,NODE 51,Air,2
 Node,34,NODE 50,Air,2
 Node,35,NODE 54,Air,2
 Node,36,NODE 53,Air,2
 Node,37,NODE 57,Air,2
 Node,38,NODE 56,Air,2
 Node,39,NODE 60,Air,2
 Node,40,NODE 59,Air,2
 Node,41,NODE 63,Air,2
 Node,42,NODE 62,Air,2
 Node,43,NODE 66,Air,2
 Node,44,NODE 65,Air,2
 Node,45,NODE 69,Air,2
 Node,46,NODE 68,Air,2
 Node,47,NODE 72,Air,2
 Node,48,NODE 71,Air,2
 Node,49,NODE 75,Air,2
 Node,50,NODE 74,Air,2
 Node,51,NODE 78,Air,2
 Node,52,NODE 77,Air,2
 Node,53,NODE 81,Air,2
 Node,54,NODE 80,Air,2
 Node,55,NODE 84,Air,2
 Node,56,NODE 83,Air,2
 Node,57,NODE 87,Air,2
 Node,58,NODE 86,Air,2
 Node,59,NODE 90,Air,2
 Node,60,NODE 89,Air,2
 Node,61,NODE 93,Air,2
 Node,62,NODE 92,Air,2
 Node,63,NODE 96,Air,2
 Node,64,NODE 95,Air,2
 Node,65,NODE 99,Air,2
 Node,66,NODE 98,Air,2
 Node,67,NODE 102,Air,2
 Node,68,NODE 101,Air,2
 Node,69,NODE 105,Air,2
 Node,70,NODE 104,Air,2
 Node,71,NODE 108,Air,2
 Node,72,NODE 107,Air,2
 Node,73,NODE 111,Air,2
 Node,74,NODE 110,Air,2
 Node,75,NODE 114,Air,2
 Node,76,NODE 113,Air,2
 Node,77,NODE 117,Air,2
 Node,78,NODE 116,Air,2
 Node,79,NODE 120,Air,2
 Node,80,NODE 119,Air,2
 Node,81,NODE 123,Air,2
 Node,82,NODE 122,Air,2
 Node,83,NODE 126,Air,2
 Node,84,NODE 125,Air,2
 Node,85,NODE 129,Air,2
 Node,86,NODE 128,Air,2
 Node,87,NODE 132,Air,2
 Node,88,NODE 131,Air,2
 Node,89,NODE 135,Air,2
 Node,90,NODE 134,Air,2
 Node,91,NODE 138,Air,2
 Node,92,NODE 137,Air,2
 Node,93,NODE 141,Air,2
 Node,94,NODE 140,Air,2
 Node,95,NODE 144,Air,2
 Node,96,NODE 143,Air,2
 Node,97,NODE 147,Air,2
 Node,98,NODE 146,Air,2
 Node,99,NODE 150,Air,2
 Node,100,NODE 149,Air,2
 Node,101,NODE 153,Air,2
 Node,102,NODE 152,Air,2
 Node,103,NODE 156,Air,2
 Node,104,NODE 155,Air,2
 Node,105,NODE 159,Air,2
 Node,106,NODE 158,Air,2
 Node,107,NODE 162,Air,2
 Node,108,NODE 161,Air,2
 Node,109,NODE 165,Air,2
 Node,110,NODE 164,Air,2
 Node,111,NODE 168,Air,2
 Node,112,NODE 167,Air,2
 Node,113,NODE 171,Air,2
 Node,114,NODE 170,Air,2
 Node,115,NODE 174,Air,2
 Node,116,NODE 173,Air,2
 Node,117,NODE 177,Air,2
 Node,118,NODE 176,Air,2
 Node,119,NODE 180,Air,2
 Node,120,NODE 179,Air,2
 Node,121,NODE 183,Air,2
 Node,122,NODE 182,Air,2
 Node,123,NODE 186,Air,2
 Node,124,NODE 185,Air,2
 Node,125,NODE 189,Air,2
 Node,126,NODE 188,Air,2
 Node,127,NODE 192,Air,2
 Node,128,NODE 191,Air,2
 Node,129,NODE 195,Air,2
 Node,130,NODE 194,Air,2
 Node,131,NODE 198,Air,2
 Node,132,NODE 197,Air,2
 Node,133,NODE 201,Air,2
 Node,134,NODE 200,Air,2
 Node,135,NODE 1,Air,0
 Node,136,CORRIDORFLR1 ZN RETURN AIR NODE,Air,0
 Node,137,NODE 4,Air,0
 Node,138,CORRIDORFLR2 ZN RETURN AIR NODE,Air,0
 Node,139,NODE 7,Air,0
 Node,140,CORRIDORFLR3 ZN RETURN AIR NODE,Air,0
 Node,141,NODE 10,Air,0
 Node,142,CORRIDORFLR4 ZN RETURN AIR NODE,Air,0
 Node,143,NODE 13,Air,0
 Node,144,ELEVATORCOREFLR1 ZN RETURN AIR NODE,Air,0
 Node,145,NODE 16,Air,0
 Node,146,ELEVATORCOREFLR2 ZN RETURN AIR NODE,Air,0
 Node,147,NODE 19,Air,0
 Node,148,ELEVATORCOREFLR3 ZN RETURN AIR NODE,Air,0
 Node,149,NODE 22,Air,0
 Node,150,ELEVATORCOREFLR4 ZN RETURN AIR NODE,Air,0
 Node,151,NODE 25,Air,0
 Node,152,EMPLOYEELOUNGEFLR1 ZN RETURN AIR NODE,Air,0
 Node,153,NODE 28,Air,0
 Node,154,EXERCISECENTERFLR1 ZN RETURN AIR NODE,Air,0
 Node,155,NODE 31,Air,0
 Node,156,FRONTLOUNGEFLR1 ZN RETURN AIR NODE,Air,0
 Node,157,NODE 34,Air,0
 Node,158,FRONTOFFICEFLR1 ZN RETURN AIR NODE,Air,0
 Node,159,NODE 37,Air,0
 Node,160,FRONTSTAIRSFLR1 ZN RETURN AIR NODE,Air,0
 Node,161,NODE 40,Air,0
 Node,162,FRONTSTAIRSFLR2 ZN RETURN AIR NODE,Air,0
 Node,163,NODE 43,Air,0
 Node,164,FRONTSTAIRSFLR3 ZN RETURN AIR NODE,Air,0
 Node,165,NODE 46,Air,0
 Node,166,FRONTSTAIRSFLR4 ZN RETURN AIR NODE,Air,0
 Node,167,NODE 49,Air,0
 Node,168,FRONTSTORAGEFLR1 ZN RETURN AIR NODE,Air,0
 Node,169,NODE 52,Air,0
 Node,170,FRONTSTORAGEFLR2 ZN RETURN AIR NODE,Air,0
 Node,171,NODE 55,Air,0
 Node,172,FRONTSTORAGEFLR3 ZN RETURN AIR NODE,Air,0
 Node,173,NODE 58,Air,0
 Node,174,FRONTSTORAGEFLR4 ZN RETURN AIR NODE,Air,0
 Node,175,NODE 61,Air,0
 Node,176,GUESTROOM101 ZN RETURN AIR NODE,Air,0
 Node,177,NODE 64,Air,0
 Node,178,GUESTROOM102 ZN RETURN AIR NODE,Air,0
 Node,179,NODE 67,Air,0
 Node,180,GUESTROOM103 ZN RETURN AIR NODE,Air,0
 Node,181,NODE 70,Air,0
 Node,182,GUESTROOM104 ZN RETURN AIR NODE,Air,0
 Node,183,NODE 73,Air,0
 Node,184,GUESTROOM105 ZN RETURN AIR NODE,Air,0
 Node,185,NODE 76,Air,0
 Node,186,GUESTROOM201 ZN RETURN AIR NODE,Air,0
 Node,187,NODE 79,Air,0
 Node,188,GUESTROOM202_205 ZN RETURN AIR NODE,Air,0
 Node,189,NODE 82,Air,0
 Node,190,GUESTROOM206_208 ZN RETURN AIR NODE,Air,0
 Node,191,NODE 85,Air,0
 Node,192,GUESTROOM209_212 ZN RETURN AIR NODE,Air,0
 Node,193,NODE 88,Air,0
 Node,194,GUESTROOM213 ZN RETURN AIR NODE,Air,0
 Node,195,NODE 91,Air,0
 Node,196,GUESTROOM214 ZN RETURN AIR NODE,Air,0
 Node,197,NODE 94,Air,0
 Node,198,GUESTROOM215_218 ZN RETURN AIR NODE,Air,0
 Node,199,NODE 97,Air,0
 Node,200,GUESTROOM219 ZN RETURN AIR NODE,Air,0
 Node,201,NODE 100,Air,0
 Node,202,GUESTROOM220_223 ZN RETURN AIR NODE,Air,0
 Node,203,NODE 103,Air,0
 Node,204,GUESTROOM224 ZN RETURN AIR NODE,Air,0
 Node,205,NODE 106,Air,0
 Node,206,GUESTROOM301 ZN RETURN AIR NODE,Air,0
 Node,207,NODE 109,Air,0
 Node,208,GUESTROOM302_305 ZN RETURN AIR NODE,Air,0
 Node,209,NODE 112,Air,0
 Node,210,GUESTROOM306_308 ZN RETURN AIR NODE,Air,0
 Node,211,NODE 115,Air,0
 Node,212,GUESTROOM309_312 ZN RETURN AIR NODE,Air,0
 Node,213,NODE 118,Air,0
 Node,214,GUESTROOM313 ZN RETURN AIR NODE,Air,0
 Node,215,NODE 121,Air,0
 Node,216,GUESTROOM314 ZN RETURN AIR NODE,Air,0
 Node,217,NODE 124,Air,0
 Node,218,GUESTROOM315_318 ZN RETURN AIR NODE,Air,0
 Node,219,NODE 127,Air,0
 Node,220,GUESTROOM319 ZN RETURN AIR NODE,Air,0
 Node,221,NODE 130,Air,0
 Node,222,GUESTROOM320_323 ZN RETURN AIR NODE,Air,0
 Node,223,NODE 133,Air,0
 Node,224,GUESTROOM324 ZN RETURN AIR NODE,Air,0
 Node,225,NODE 136,Air,0
 Node,226,GUESTROOM401 ZN RETURN AIR NODE,Air,0
 Node,227,NODE 139,Air,0
 Node,228,GUESTROOM402_405 ZN RETURN AIR NODE,Air,0
 Node,229,NODE 142,Air,0
 Node,230,GUESTROOM406_408 ZN RETURN AIR NODE,Air,0
 Node,231,NODE 145,Air,0
 Node,232,GUESTROOM409_412 ZN RETURN AIR NODE,Air,0
 Node,233,NODE 148,Air,0
 Node,234,GUESTROOM413 ZN RETURN AIR NODE,Air,0
 Node,235,NODE 151,Air,0
 Node,236,GUESTROOM414 ZN RETURN AIR NODE,Air,0
 Node,237,NODE 154,Air,0
 Node,238,GUESTROOM415_418 ZN RETURN AIR NODE,Air,0
 Node,239,NODE 157,Air,0
 Node,240,GUESTROOM419 ZN RETURN AIR NODE,Air,0
 Node,241,NODE 160,Air,0
 Node,242,GUESTROOM420_423 ZN RETURN AIR NODE,Air,0
 Node,243,NODE 163,Air,0
 Node,244,GUESTROOM424 ZN RETURN AIR NODE,Air,0
 Node,245,NODE 166,Air,0
 Node,246,LAUNDRYROOMFLR1 ZN RETURN AIR NODE,Air,0
 Node,247,NODE 169,Air,0
 Node,248,MECHANICALROOMFLR1 ZN RETURN AIR NODE,Air,0
 Node,249,NODE 172,Air,0
 Node,250,MEETINGROOMFLR1 ZN RETURN AIR NODE,Air,0
 Node,251,NODE 175,Air,0
 Node,252,REARSTAIRSFLR1 ZN RETURN AIR NODE,Air,0
 Node,253,NODE 178,Air,0
 Node,254,REARSTAIRSFLR2 ZN RETURN AIR NODE,Air,0
 Node,255,NODE 181,Air,0
 Node,256,REARSTAIRSFLR3 ZN RETURN AIR NODE,Air,0
 Node,257,NODE 184,Air,0
 Node,258,REARSTAIRSFLR4 ZN RETURN AIR NODE,Air,0
 Node,259,NODE 187,Air,0
 Node,260,REARSTORAGEFLR1 ZN RETURN AIR NODE,Air,0
 Node,261,NODE 190,Air,0
 Node,262,REARSTORAGEFLR2 ZN RETURN AIR NODE,Air,0
 Node,263,NODE 193,Air,0
 Node,264,REARSTORAGEFLR3 ZN RETURN AIR NODE,Air,0
 Node,265,NODE 196,Air,0
 Node,266,REARSTORAGEFLR4 ZN RETURN AIR NODE,Air,0
 Node,267,NODE 199,Air,0
 Node,268,RESTROOMFLR1 ZN RETURN AIR NODE,Air,0
 Node,269,MODEL OUTDOOR AIR NODE,Air,0
 Node,270,ZONE HVAC IDEAL LOADS AIR SYSTEM 1 OUTDOOR AIR INLET NODE,Air,1
 Node,271,ZONE HVAC IDEAL LOADS AIR SYSTEM 2 OUTDOOR AIR INLET NODE,Air,1
 Node,272,ZONE HVAC IDEAL LOADS AIR SYSTEM 3 OUTDOOR AIR INLET NODE,Air,1
 Node,273,ZONE HVAC IDEAL LOADS AIR SYSTEM 4 OUTDOOR AIR INLET NODE,Air,1
 Node,274,ZONE HVAC IDEAL LOADS AIR SYSTEM 5 OUTDOOR AIR INLET NODE,Air,1
 Node,275,ZONE HVAC IDEAL LOADS AIR SYSTEM 6 OUTDOOR AIR INLET NODE,Air,1
 Node,276,ZONE HVAC IDEAL LOADS AIR SYSTEM 7 OUTDOOR AIR INLET NODE,Air,1
 Node,277,ZONE HVAC IDEAL LOADS AIR SYSTEM 8 OUTDOOR AIR INLET NODE,Air,1
 Node,278,ZONE HVAC IDEAL LOADS AIR SYSTEM 9 OUTDOOR AIR INLET NODE,Air,1
 Node,279,ZONE HVAC IDEAL LOADS AIR SYSTEM 10 OUTDOOR AIR INLET NODE,Air,1
 Node,280,ZONE HVAC IDEAL LOADS AIR SYSTEM 11 OUTDOOR AIR INLET NODE,Air,1
 Node,281,ZONE HVAC IDEAL LOADS AIR SYSTEM 12 OUTDOOR AIR INLET NODE,Air,1
 Node,282,ZONE HVAC IDEAL LOADS AIR SYSTEM 13 OUTDOOR AIR INLET NODE,Air,1
 Node,283,ZONE HVAC IDEAL LOADS AIR SYSTEM 14 OUTDOOR AIR INLET NODE,Air,1
 Node,284,ZONE HVAC IDEAL LOADS AIR SYSTEM 15 OUTDOOR AIR INLET NODE,Air,1
 Node,285,ZONE HVAC IDEAL LOADS AIR SYSTEM 16 OUTDOOR AIR INLET NODE,Air,1
 Node,286,ZONE HVAC IDEAL LOADS AIR SYSTEM 17 OUTDOOR AIR INLET NODE,Air,1
 Node,287,ZONE HVAC IDEAL LOADS AIR SYSTEM 18 OUTDOOR AIR INLET NODE,Air,1
 Node,288,ZONE HVAC IDEAL LOADS AIR SYSTEM 19 OUTDOOR AIR INLET NODE,Air,1
 Node,289,ZONE HVAC IDEAL LOADS AIR SYSTEM 20 OUTDOOR AIR INLET NODE,Air,1
 Node,290,ZONE HVAC IDEAL LOADS AIR SYSTEM 21 OUTDOOR AIR INLET NODE,Air,1
 Node,291,ZONE HVAC IDEAL LOADS AIR SYSTEM 22 OUTDOOR AIR INLET NODE,Air,1
 Node,292,ZONE HVAC IDEAL LOADS AIR SYSTEM 23 OUTDOOR AIR INLET NODE,Air,1
 Node,293,ZONE HVAC IDEAL LOADS AIR SYSTEM 24 OUTDOOR AIR INLET NODE,Air,1
 Node,294,ZONE HVAC IDEAL LOADS AIR SYSTEM 25 OUTDOOR AIR INLET NODE,Air,1
 Node,295,ZONE HVAC IDEAL LOADS AIR SYSTEM 26 OUTDOOR AIR INLET NODE,Air,1
 Node,296,ZONE HVAC IDEAL LOADS AIR SYSTEM 27 OUTDOOR AIR INLET NODE,Air,1
 Node,297,ZONE HVAC IDEAL LOADS AIR SYSTEM 28 OUTDOOR AIR INLET NODE,Air,1
 Node,298,ZONE HVAC IDEAL LOADS AIR SYSTEM 29 OUTDOOR AIR INLET NODE,Air,1
 Node,299,ZONE HVAC IDEAL LOADS AIR SYSTEM 30 OUTDOOR AIR INLET NODE,Air,1
 Node,300,ZONE HVAC IDEAL LOADS AIR SYSTEM 31 OUTDOOR AIR INLET NODE,Air,1
 Node,301,ZONE HVAC IDEAL LOADS AIR SYSTEM 32 OUTDOOR AIR INLET NODE,Air,1
 Node,302,ZONE HVAC IDEAL LOADS AIR SYSTEM 33 OUTDOOR AIR INLET NODE,Air,1
 Node,303,ZONE HVAC IDEAL LOADS AIR SYSTEM 34 OUTDOOR AIR INLET NODE,Air,1
 Node,304,ZONE HVAC IDEAL LOADS AIR SYSTEM 35 OUTDOOR AIR INLET NODE,Air,1
 Node,305,ZONE HVAC IDEAL LOADS AIR SYSTEM 36 OUTDOOR AIR INLET NODE,Air,1
 Node,306,ZONE HVAC IDEAL LOADS AIR SYSTEM 37 OUTDOOR AIR INLET NODE,Air,1
 Node,307,ZONE HVAC IDEAL LOADS AIR SYSTEM 38 OUTDOOR AIR INLET NODE,Air,1
 Node,308,ZONE HVAC IDEAL LOADS AIR SYSTEM 39 OUTDOOR AIR INLET NODE,Air,1
 Node,309,ZONE HVAC IDEAL LOADS AIR SYSTEM 40 OUTDOOR AIR INLET NODE,Air,1
 Node,310,ZONE HVAC IDEAL LOADS AIR SYSTEM 41 OUTDOOR AIR INLET NODE,Air,1
 Node,311,ZONE HVAC IDEAL LOADS AIR SYSTEM 42 OUTDOOR AIR INLET NODE,Air,1
 Node,312,ZONE HVAC IDEAL LOADS AIR SYSTEM 43 OUTDOOR AIR INLET NODE,Air,1
 Node,313,ZONE HVAC IDEAL LOADS AIR SYSTEM 44 OUTDOOR AIR INLET NODE,Air,1
 Node,314,ZONE HVAC IDEAL LOADS AIR SYSTEM 45 OUTDOOR AIR INLET NODE,Air,1
 Node,315,ZONE HVAC IDEAL LOADS AIR SYSTEM 46 OUTDOOR AIR INLET NODE,Air,1
 Node,316,ZONE HVAC IDEAL LOADS AIR SYSTEM 47 OUTDOOR AIR INLET NODE,Air,1
 Node,317,ZONE HVAC IDEAL LOADS AIR SYSTEM 48 OUTDOOR AIR INLET NODE,Air,1
 Node,318,ZONE HVAC IDEAL LOADS AIR SYSTEM 49 OUTDOOR AIR INLET NODE,Air,1
 Node,319,ZONE HVAC IDEAL LOADS AIR SYSTEM 50 OUTDOOR AIR INLET NODE,Air,1
 Node,320,ZONE HVAC IDEAL LOADS AIR SYSTEM 51 OUTDOOR AIR INLET NODE,Air,1
 Node,321,ZONE HVAC IDEAL LOADS AIR SYSTEM 52 OUTDOOR AIR INLET NODE,Air,1
 Node,322,ZONE HVAC IDEAL LOADS AIR SYSTEM 53 OUTDOOR AIR INLET NODE,Air,1
 Node,323,ZONE HVAC IDEAL LOADS AIR SYSTEM 54 OUTDOOR AIR INLET NODE,Air,1
 Node,324,ZONE HVAC IDEAL LOADS AIR SYSTEM 55 OUTDOOR AIR INLET NODE,Air,1
 Node,325,ZONE HVAC IDEAL LOADS AIR SYSTEM 56 OUTDOOR AIR INLET NODE,Air,1
 Node,326,ZONE HVAC IDEAL LOADS AIR SYSTEM 57 OUTDOOR AIR INLET NODE,Air,1
 Node,327,ZONE HVAC IDEAL LOADS AIR SYSTEM 58 OUTDOOR AIR INLET NODE,Air,1
 Node,328,ZONE HVAC IDEAL LOADS AIR SYSTEM 59 OUTDOOR AIR INLET NODE,Air,1
 Node,329,ZONE HVAC IDEAL LOADS AIR SYSTEM 60 OUTDOOR AIR INLET NODE,Air,1
 Node,330,ZONE HVAC IDEAL LOADS AIR SYSTEM 61 OUTDOOR AIR INLET NODE,Air,1
 Node,331,ZONE HVAC IDEAL LOADS AIR SYSTEM 62 OUTDOOR AIR INLET NODE,Air,1
 Node,332,ZONE HVAC IDEAL LOADS AIR SYSTEM 63 OUTDOOR AIR INLET NODE,Air,1
 Node,333,ZONE HVAC IDEAL LOADS AIR SYSTEM 64 OUTDOOR AIR INLET NODE,Air,1
 Node,334,ZONE HVAC IDEAL LOADS AIR SYSTEM 65 OUTDOOR AIR INLET NODE,Air,1
 Node,335,ZONE HVAC IDEAL LOADS AIR SYSTEM 66 OUTDOOR AIR INLET NODE,Air,1
 Node,336,ZONE HVAC IDEAL LOADS AIR SYSTEM 67 OUTDOOR AIR INLET NODE,Air,1
! ===============================================================
! Suspicious nodes have 0 references.  It is normal for some nodes, however.
! Listing nodes with 0 references (culled from previous list):
! <Suspicious Node>,<NodeNumber>,<Node Name>,<Node Fluid Type>,<# Times Node Referenced After Definition>
 Suspicious Node,135,NODE 1,Air,0
 Suspicious Node,136,CORRIDORFLR1 ZN RETURN AIR NODE,Air,0
 Suspicious Node,137,NODE 4,Air,0
 Suspicious Node,138,CORRIDORFLR2 ZN RETURN AIR NODE,Air,0
 Suspicious Node,139,NODE 7,Air,0
 Suspicious Node,140,CORRIDORFLR3 ZN RETURN AIR NODE,Air,0
 Suspicious Node,141,NODE 10,Air,0
 Suspicious Node,142,CORRIDORFLR4 ZN RETURN AIR NODE,Air,0
 Suspicious Node,143,NODE 13,Air,0
 Suspicious Node,144,ELEVATORCOREFLR1 ZN RETURN AIR NODE,Air,0
 Suspicious Node,145,NODE 16,Air,0
 Suspicious Node,146,ELEVATORCOREFLR2 ZN RETURN AIR NODE,Air,0
 Suspicious Node,147,NODE 19,Air,0
 Suspicious Node,148,ELEVATORCOREFLR3 ZN RETURN AIR NODE,Air,0
 Suspicious Node,149,NODE 22,Air,0
 Suspicious Node,150,ELEVATORCOREFLR4 ZN RETURN AIR NODE,Air,0
 Suspicious Node,151,NODE 25,Air,0
 Suspicious Node,152,EMPLOYEELOUNGEFLR1 ZN RETURN AIR NODE,Air,0
 Suspicious Node,153,NODE 28,Air,0
 Suspicious Node,154,EXERCISECENTERFLR1 ZN RETURN AIR NODE,Air,0
 Suspicious Node,155,NODE 31,Air,0
 Suspicious Node,156,FRONTLOUNGEFLR1 ZN RETURN AIR NODE,Air,0
 Suspicious Node,157,NODE 34,Air,0
 Suspicious Node,158,FRONTOFFICEFLR1 ZN RETURN AIR NODE,Air,0
 Suspicious Node,159,NODE 37,Air,0
 Suspicious Node,160,FRONTSTAIRSFLR1 ZN RETURN AIR NODE,Air,0
 Suspicious Node,161,NODE 40,Air,0
 Suspicious Node,162,FRONTSTAIRSFLR2 ZN RETURN AIR NODE,Air,0
 Suspicious Node,163,NODE 43,Air,0
 Suspicious Node,164,FRONTSTAIRSFLR3 ZN RETURN AIR NODE,Air,0
 Suspicious Node,165,NODE 46,Air,0
 Suspicious Node,166,FRONTSTAIRSFLR4 ZN RETURN AIR NODE,Air,0
 Suspicious Node,167,NODE 49,Air,0
 Suspicious Node,168,FRONTSTORAGEFLR1 ZN RETURN AIR NODE,Air,0
 Suspicious Node,169,NODE 52,Air,0
 Suspicious Node,170,FRONTSTORAGEFLR2 ZN RETURN AIR NODE,Air,0
 Suspicious Node,171,NODE 55,Air,0
 Suspicious Node,172,FRONTSTORAGEFLR3 ZN RETURN AIR NODE,Air,0
 Suspicious Node,173,NODE 58,Air,0
 Suspicious Node,174,FRONTSTORAGEFLR4 ZN RETURN AIR NODE,Air,0
 Suspicious Node,175,NODE 61,Air,0
 Suspicious Node,176,GUESTROOM101 ZN RETURN AIR NODE,Air,0
 Suspicious Node,177,NODE 64,Air,0
 Suspicious Node,178,GUESTROOM102 ZN RETURN AIR NODE,Air,0
 Suspicious Node,179,NODE 67,Air,0
 Suspicious Node,180,GUESTROOM103 ZN RETURN AIR NODE,Air,0
 Suspicious Node,181,NODE 70,Air,0
 Suspicious Node,182,GUESTROOM104 ZN RETURN AIR NODE,Air,0
 Suspicious Node,183,NODE 73,Air,0
 Suspicious Node,184,GUESTROOM105 ZN RETURN AIR NODE,Air,0
 Suspicious Node,185,NODE 76,Air,0
 Suspicious Node,186,GUESTROOM201 ZN RETURN AIR NODE,Air,0
 Suspicious Node,187,NODE 79,Air,0
 Suspicious Node,188,GUESTROOM202_205 ZN RETURN AIR NODE,Air,0
 Suspicious Node,189,NODE 82,Air,0
 Suspicious Node,190,GUESTROOM206_208 ZN RETURN AIR NODE,Air,0
 Suspicious Node,191,NODE 85,Air,0
 Suspicious Node,192,GUESTROOM209_212 ZN RETURN AIR NODE,Air,0
 Suspicious Node,193,NODE 88,Air,0
 Suspicious Node,194,GUESTROOM213 ZN RETURN AIR NODE,Air,0
 Suspicious Node,195,NODE 91,Air,0
 Suspicious Node,196,GUESTROOM214 ZN RETURN AIR NODE,Air,0
 Suspicious Node,197,NODE 94,Air,0
 Suspicious Node,198,GUESTROOM215_218 ZN RETURN AIR NODE,Air,0
 Suspicious Node,199,NODE 97,Air,0
 Suspicious Node,200,GUESTROOM219 ZN RETURN AIR NODE,Air,0
 Suspicious Node,201,NODE 100,Air,0
 Suspicious Node,202,GUESTROOM220_223 ZN RETURN AIR NODE,Air,0
 Suspicious Node,203,NODE 103,Air,0
 Suspicious Node,204,GUESTROOM224 ZN RETURN AIR NODE,Air,0
 Suspicious Node,205,NODE 106,Air,0
 Suspicious Node,206,GUESTROOM301 ZN RETURN AIR NODE,Air,0
 Suspicious Node,207,NODE 109,Air,0
 Suspicious Node,208,GUESTROOM302_305 ZN RETURN AIR NODE,Air,0
 Suspicious Node,209,NODE 112,Air,0
 Suspicious Node,210,GUESTROOM306_308 ZN RETURN AIR NODE,Air,0
 Suspicious Node,211,NODE 115,Air,0
 Suspicious Node,212,GUESTROOM309_312 ZN RETURN AIR NODE,Air,0
 Suspicious Node,213,NODE 118,Air,0
 Suspicious Node,214,GUESTROOM313 ZN RETURN AIR NODE,Air,0
 Suspicious Node,215,NODE 121,Air,0
 Suspicious Node,216,GUESTROOM314 ZN RETURN AIR NODE,Air,0
 Suspicious Node,217,NODE 124,Air,0
 Suspicious Node,218,GUESTROOM315_318 ZN RETURN AIR NODE,Air,0
 Suspicious Node,219,NODE 127,Air,0
 Suspicious Node,220,GUESTROOM319 ZN RETURN AIR NODE,Air,0
 Suspicious Node,221,NODE 130,Air,0
 Suspicious Node,222,GUESTROOM320_323 ZN RETURN AIR NODE,Air,0
 Suspicious Node,223,NODE 133,Air,0
 Suspicious Node,224,GUESTROOM324 ZN RETURN AIR NODE,Air,0
 Suspicious Node,225,NODE 136,Air,0
 Suspicious Node,226,GUESTROOM401 ZN RETURN AIR NODE,Air,0
 Suspicious Node,227,NODE 139,Air,0
 Suspicious Node,228,GUESTROOM402_405 ZN RETURN AIR NODE,Air,0
 Suspicious Node,229,NODE 142,Air,0
 Suspicious Node,230,GUESTROOM406_408 ZN RETURN AIR NODE,Air,0
 Suspicious Node,231,NODE 145,Air,0
 Suspicious Node,232,GUESTROOM409_412 ZN RETURN AIR NODE,Air,0
 Suspicious Node,233,NODE 148,Air,0
 Suspicious Node,234,GUESTROOM413 ZN RETURN AIR NODE,Air,0
 Suspicious Node,235,NODE 151,Air,0
 Suspicious Node,236,GUESTROOM414 ZN RETURN AIR NODE,Air,0
 Suspicious Node,237,NODE 154,Air,0
 Suspicious Node,238,GUESTROOM415_418 ZN RETURN AIR NODE,Air,0
 Suspicious Node,239,NODE 157,Air,0
 Suspicious Node,240,GUESTROOM419 ZN RETURN AIR NODE,Air,0
 Suspicious Node,241,NODE 160,Air,0
 Suspicious Node,242,GUESTROOM420_423 ZN RETURN AIR NODE,Air,0
 Suspicious Node,243,NODE 163,Air,0
 Suspicious Node,244,GUESTROOM424 ZN RETURN AIR NODE,Air,0
 Suspicious Node,245,NODE 166,Air,0
 Suspicious Node,246,LAUNDRYROOMFLR1 ZN RETURN AIR NODE,Air,0
 Suspicious Node,247,NODE 169,Air,0
 Suspicious Node,248,MECHANICALROOMFLR1 ZN RETURN AIR NODE,Air,0
 Suspicious Node,249,NODE 172,Air,0
 Suspicious Node,250,MEETINGROOMFLR1 ZN RETURN AIR NODE,Air,0
 Suspicious Node,251,NODE 175,Air,0
 Suspicious Node,252,REARSTAIRSFLR1 ZN RETURN AIR NODE,Air,0
 Suspicious Node,253,NODE 178,Air,0
 Suspicious Node,254,REARSTAIRSFLR2 ZN RETURN AIR NODE,Air,0
 Suspicious Node,255,NODE 181,Air,0
 Suspicious Node,256,REARSTAIRSFLR3 ZN RETURN AIR NODE,Air,0
 Suspicious Node,257,NODE 184,Air,0
 Suspicious Node,258,REARSTAIRSFLR4 ZN RETURN AIR NODE,Air,0
 Suspicious Node,259,NODE 187,Air,0
 Suspicious Node,260,REARSTORAGEFLR1 ZN RETURN AIR NODE,Air,0
 Suspicious Node,261,NODE 190,Air,0
 Suspicious Node,262,REARSTORAGEFLR2 ZN RETURN AIR NODE,Air,0
 Suspicious Node,263,NODE 193,Air,0
 Suspicious Node,264,REARSTORAGEFLR3 ZN RETURN AIR NODE,Air,0
 Suspicious Node,265,NODE 196,Air,0
 Suspicious Node,266,REARSTORAGEFLR4 ZN RETURN AIR NODE,Air,0
 Suspicious Node,267,NODE 199,Air,0
 Suspicious Node,268,RESTROOMFLR1 ZN RETURN AIR NODE,Air,0
 Suspicious Node,269,MODEL OUTDOOR AIR NODE,Air,0
! ===============================================================
! <#Branch Lists>,<Number of Branch Lists>
 #Branch Lists,0
! <Branch List>,<Branch List Count>,<Branch List Name>,<Loop Name>,<Loop Type>,<Number of Branches>
! <Branch>,<Branch Count>,<Branch Name>,<Loop Name>,<Loop Type>,<Branch Inlet Node Name>,<Branch Outlet Node Name>
! ===============================================================
! <#Supply Air Paths>,<Number of Supply Air Paths>
 #Supply Air Paths,0
! <Supply Air Path>,<Supply Air Path Count>,<Supply Air Path Name>,<AirLoopHVAC Name>
! <#Components on Supply Air Path>,<Number of Components>
! <Supply Air Path Component>,<Component Count>,<Component Type>,<Component Name>,<AirLoopHVAC Name>
! <#Outlet Nodes on Supply Air Path Component>,<Number of Nodes>
! <Supply Air Path Component Nodes>,<Node Count>,<Component Type>,<Component Name>,<Inlet Node Name>,<Outlet Node Name>,<AirLoopHVAC Name>
! ===============================================================
! <#Return Air Paths>,<Number of Return Air Paths>
 #Return Air Paths,0
! <Return Air Path>,<Return Air Path Count>,<Return Air Path Name>,<AirLoopHVAC Name>
! <#Components on Return Air Path>,<Number of Components>
! <Return Air Path Component>,<Component Count>,<Component Type>,<Component Name>,<AirLoopHVAC Name>
! <#Inlet Nodes on Return Air Path Component>,<Number of Nodes>
! <Return Air Path Component Nodes>,<Node Count>,<Component Type>,<Component Name>,<Inlet Node Name>,<Outlet Node Name>,<AirLoopHVAC Name>
! ===============================================================
! #Outdoor Air Nodes,<Number of Outdoor Air Nodes>
 #Outdoor Air Nodes,68
! <Outdoor Air Node>,<NodeNumber>,<Node Name>
 Outdoor Air Node,269,MODEL OUTDOOR AIR NODE
 Outdoor Air Node,270,ZONE HVAC IDEAL LOADS AIR SYSTEM 1 OUTDOOR AIR INLET NODE
 Outdoor Air Node,271,ZONE HVAC IDEAL LOADS AIR SYSTEM 2 OUTDOOR AIR INLET NODE
 Outdoor Air Node,272,ZONE HVAC IDEAL LOADS AIR SYSTEM 3 OUTDOOR AIR INLET NODE
 Outdoor Air Node,273,ZONE HVAC IDEAL LOADS AIR SYSTEM 4 OUTDOOR AIR INLET NODE
 Outdoor Air Node,274,ZONE HVAC IDEAL LOADS AIR SYSTEM 5 OUTDOOR AIR INLET NODE
 Outdoor Air Node,275,ZONE HVAC IDEAL LOADS AIR SYSTEM 6 OUTDOOR AIR INLET NODE
 Outdoor Air Node,276,ZONE HVAC IDEAL LOADS AIR SYSTEM 7 OUTDOOR AIR INLET NODE
 Outdoor Air Node,277,ZONE HVAC IDEAL LOADS AIR SYSTEM 8 OUTDOOR AIR INLET NODE
 Outdoor Air Node,278,ZONE HVAC IDEAL LOADS AIR SYSTEM 9 OUTDOOR AIR INLET NODE
 Outdoor Air Node,279,ZONE HVAC IDEAL LOADS AIR SYSTEM 10 OUTDOOR AIR INLET NODE
 Outdoor Air Node,280,ZONE HVAC IDEAL LOADS AIR SYSTEM 11 OUTDOOR AIR INLET NODE
 Outdoor Air Node,281,ZONE HVAC IDEAL LOADS AIR SYSTEM 12 OUTDOOR AIR INLET NODE
 Outdoor Air Node,282,ZONE HVAC IDEAL LOADS AIR SYSTEM 13 OUTDOOR AIR INLET NODE
 Outdoor Air Node,283,ZONE HVAC IDEAL LOADS AIR SYSTEM 14 OUTDOOR AIR INLET NODE
 Outdoor Air Node,284,ZONE HVAC IDEAL LOADS AIR SYSTEM 15 OUTDOOR AIR INLET NODE
 Outdoor Air Node,285,ZONE HVAC IDEAL LOADS AIR SYSTEM 16 OUTDOOR AIR INLET NODE
 Outdoor Air Node,286,ZONE HVAC IDEAL LOADS AIR SYSTEM 17 OUTDOOR AIR INLET NODE
 Outdoor Air Node,287,ZONE HVAC IDEAL LOADS AIR SYSTEM 18 OUTDOOR AIR INLET NODE
 Outdoor Air Node,288,ZONE HVAC IDEAL LOADS AIR SYSTEM 19 OUTDOOR AIR INLET NODE
 Outdoor Air Node,289,ZONE HVAC IDEAL LOADS AIR SYSTEM 20 OUTDOOR AIR INLET NODE
 Outdoor Air Node,290,ZONE HVAC IDEAL LOADS AIR SYSTEM 21 OUTDOOR AIR INLET NODE
 Outdoor Air Node,291,ZONE HVAC IDEAL LOADS AIR SYSTEM 22 OUTDOOR AIR INLET NODE
 Outdoor Air Node,292,ZONE HVAC IDEAL LOADS AIR SYSTEM 23 OUTDOOR AIR INLET NODE
 Outdoor Air Node,293,ZONE HVAC IDEAL LOADS AIR SYSTEM 24 OUTDOOR AIR INLET NODE
 Outdoor Air Node,294,ZONE HVAC IDEAL LOADS AIR SYSTEM 25 OUTDOOR AIR INLET NODE
 Outdoor Air Node,295,ZONE HVAC IDEAL LOADS AIR SYSTEM 26 OUTDOOR AIR INLET NODE
 Outdoor Air Node,296,ZONE HVAC IDEAL LOADS AIR SYSTEM 27 OUTDOOR AIR INLET NODE
 Outdoor Air Node,297,ZONE HVAC IDEAL LOADS AIR SYSTEM 28 OUTDOOR AIR INLET NODE
 Outdoor Air Node,298,ZONE HVAC IDEAL LOADS AIR SYSTEM 29 OUTDOOR AIR INLET NODE
 Outdoor Air Node,299,ZONE HVAC IDEAL LOADS AIR SYSTEM 30 OUTDOOR AIR INLET NODE
 Outdoor Air Node,300,ZONE HVAC IDEAL LOADS AIR SYSTEM 31 OUTDOOR AIR INLET NODE
 Outdoor Air Node,301,ZONE HVAC IDEAL LOADS AIR SYSTEM 32 OUTDOOR AIR INLET NODE
 Outdoor Air Node,302,ZONE HVAC IDEAL LOADS AIR SYSTEM 33 OUTDOOR AIR INLET NODE
 Outdoor Air Node,303,ZONE HVAC IDEAL LOADS AIR SYSTEM 34 OUTDOOR AIR INLET NODE
 Outdoor Air Node,304,ZONE HVAC IDEAL LOADS AIR SYSTEM 35 OUTDOOR AIR INLET NODE
 Outdoor Air Node,305,ZONE HVAC IDEAL LOADS AIR SYSTEM 36 OUTDOOR AIR INLET NODE
 Outdoor Air Node,306,ZONE HVAC IDEAL LOADS AIR SYSTEM 37 OUTDOOR AIR INLET NODE
 Outdoor Air Node,307,ZONE HVAC IDEAL LOADS AIR SYSTEM 38 OUTDOOR AIR INLET NODE
 Outdoor Air Node,308,ZONE HVAC IDEAL LOADS AIR SYSTEM 39 OUTDOOR AIR INLET NODE
 Outdoor Air Node,309,ZONE HVAC IDEAL LOADS AIR SYSTEM 40 OUTDOOR AIR INLET NODE
 Outdoor Air Node,310,ZONE HVAC IDEAL LOADS AIR SYSTEM 41 OUTDOOR AIR INLET NODE
 Outdoor Air Node,311,ZONE HVAC IDEAL LOADS AIR SYSTEM 42 OUTDOOR AIR INLET NODE
 Outdoor Air Node,312,ZONE HVAC IDEAL LOADS AIR SYSTEM 43 OUTDOOR AIR INLET NODE
 Outdoor Air Node,313,ZONE HVAC IDEAL LOADS AIR SYSTEM 44 OUTDOOR AIR INLET NODE
 Outdoor Air Node,314,ZONE HVAC IDEAL LOADS AIR SYSTEM 45 OUTDOOR AIR INLET NODE
 Outdoor Air Node,315,ZONE HVAC IDEAL LOADS AIR SYSTEM 46 OUTDOOR AIR INLET NODE
 Outdoor Air Node,316,ZONE HVAC IDEAL LOADS AIR SYSTEM 47 OUTDOOR AIR INLET NODE
 Outdoor Air Node,317,ZONE HVAC IDEAL LOADS AIR SYSTEM 48 OUTDOOR AIR INLET NODE
 Outdoor Air Node,318,ZONE HVAC IDEAL LOADS AIR SYSTEM 49 OUTDOOR AIR INLET NODE
 Outdoor Air Node,319,ZONE HVAC IDEAL LOADS AIR SYSTEM 50 OUTDOOR AIR INLET NODE
 Outdoor Air Node,320,ZONE HVAC IDEAL LOADS AIR SYSTEM 51 OUTDOOR AIR INLET NODE
 Outdoor Air Node,321,ZONE HVAC IDEAL LOADS AIR SYSTEM 52 OUTDOOR AIR INLET NODE
 Outdoor Air Node,322,ZONE HVAC IDEAL LOADS AIR SYSTEM 53 OUTDOOR AIR INLET NODE
 Outdoor Air Node,323,ZONE HVAC IDEAL LOADS AIR SYSTEM 54 OUTDOOR AIR INLET NODE
 Outdoor Air Node,324,ZONE HVAC IDEAL LOADS AIR SYSTEM 55 OUTDOOR AIR INLET NODE
 Outdoor Air Node,325,ZONE HVAC IDEAL LOADS AIR SYSTEM 56 OUTDOOR AIR INLET NODE
 Outdoor Air Node,326,ZONE HVAC IDEAL LOADS AIR SYSTEM 57 OUTDOOR AIR INLET NODE
 Outdoor Air Node,327,ZONE HVAC IDEAL LOADS AIR SYSTEM 58 OUTDOOR AIR INLET NODE
 Outdoor Air Node,328,ZONE HVAC IDEAL LOADS AIR SYSTEM 59 OUTDOOR AIR INLET NODE
 Outdoor Air Node,329,ZONE HVAC IDEAL LOADS AIR SYSTEM 60 OUTDOOR AIR INLET NODE
 Outdoor Air Node,330,ZONE HVAC IDEAL LOADS AIR SYSTEM 61 OUTDOOR AIR INLET NODE
 Outdoor Air Node,331,ZONE HVAC IDEAL LOADS AIR SYSTEM 62 OUTDOOR AIR INLET NODE
 Outdoor Air Node,332,ZONE HVAC IDEAL LOADS AIR SYSTEM 63 OUTDOOR AIR INLET NODE
 Outdoor Air Node,333,ZONE HVAC IDEAL LOADS AIR SYSTEM 64 OUTDOOR AIR INLET NODE
 Outdoor Air Node,334,ZONE HVAC IDEAL LOADS AIR SYSTEM 65 OUTDOOR AIR INLET NODE
 Outdoor Air Node,335,ZONE HVAC IDEAL LOADS AIR SYSTEM 66 OUTDOOR AIR INLET NODE
 Outdoor Air Node,336,ZONE HVAC IDEAL LOADS AIR SYSTEM 67 OUTDOOR AIR INLET NODE
! ===============================================================
! <#Component Sets>,<Number of Component Sets>
 #Component Sets,0
! <Component Set>,<Component Set Count>,<Parent Object Type>,<Parent Object Name>,<Component Type>,<Component Name>,<Inlet Node ID>,<Outlet Node ID>,<Description>
! ===============================================================
! <# Plant Loops>,<Number of Plant Loops>
 #Plant Loops,0
! <Plant Loop>,<Plant Loop Name>,<Loop Type>,<Inlet Node Name>,<Outlet Node Name>,<Branch List>,<Connector List>
! <Plant Loop Connector>,<Connector Type>,<Connector Name>,<Loop Name>,<Loop Type>,<Number of Inlets/Outlets>
! <Plant Loop Connector Branches>,<Connector Node Count>,<Connector Type>,<Connector Name>,<Inlet Branch>,<Outlet Branch>,<Loop Name>,<Loop Type>
! <Plant Loop Connector Nodes>,<Connector Node Count>,<Connector Type>,<Connector Name>,<Inlet Node>,<Outlet Node>,<Loop Name>,<Loop Type>
! <Plant Loop Supply Connection>,<Plant Loop Name>,<Supply Side Outlet Node Name>,<Demand Side Inlet Node Name>
! <Plant Loop Return Connection>,<Plant Loop Name>,<Demand Side Outlet Node Name>,<Supply Side Inlet Node Name>
! ===============================================================
! <# Condenser Loops>,<Number of Condenser Loops>
 #Condenser Loops,0
! <Condenser Loop>,<Condenser Loop Name>,<Loop Type>,<Inlet Node Name>,<Outlet Node Name>,<Branch List>,<Connector List>
! <Condenser Loop Connector>,<Connector Type>,<Connector Name>,<Loop Name>,<Loop Type>,<Number of Inlets/Outlets>
! <Condenser Loop Connector Branches>,<Connector Node Count>,<Connector Type>,<Connector Name>,<Inlet Branch>,<Outlet Branch>,<Loop Name>,<Loop Type>
! <Condenser Loop Connector Nodes>,<Connector Node Count>,<Connector Type>,<Connector Name>,<Inlet Node>,<Outlet Node>,<Loop Name>,<Loop Type>
! <Condenser Loop Supply Connection>,<Condenser Loop Name>,<Supply Side Outlet Node Name>,<Demand Side Inlet Node Name>
! <Condenser Loop Return Connection>,<Condenser Loop Name>,<Demand Side Outlet Node Name>,<Supply Side Inlet Node Name>
! ===============================================================
! <# Controlled Zones>,<Number of Controlled Zones>
 #Controlled Zones,67
! <Controlled Zone>,<Controlled Zone Name>,<Equip List Name>,<Control List Name>,<Zone Node Name>,<# Inlet Nodes>,<# Exhaust Nodes>,<# Return Nodes>
! <Controlled Zone Inlet>,<Inlet Node Count>,<Controlled Zone Name>,<Supply Air Inlet Node Name>,<SD Sys:Cooling/Heating [DD:Cooling] Inlet Node Name>,<DD Sys:Heating Inlet Node Name>
! <Controlled Zone Exhaust>,<Exhaust Node Count>,<Controlled Zone Name>,<Exhaust Air Node Name>
 Controlled Zone,CORRIDORFLR1 ZN,CORRIDORFLR1 ZN EQUIPMENT LIST,,NODE 1,1,1,1
   Controlled Zone Inlet,1,CORRIDORFLR1 ZN,NODE 3,Undefined,N/A
   Controlled Zone Exhaust,1,CORRIDORFLR1 ZN,NODE 2
   Controlled Zone Return,1,CORRIDORFLR1 ZN,CORRIDORFLR1 ZN RETURN AIR NODE
 Controlled Zone,CORRIDORFLR2 ZN,CORRIDORFLR2 ZN EQUIPMENT LIST,,NODE 4,1,1,1
   Controlled Zone Inlet,1,CORRIDORFLR2 ZN,NODE 6,Undefined,N/A
   Controlled Zone Exhaust,1,CORRIDORFLR2 ZN,NODE 5
   Controlled Zone Return,1,CORRIDORFLR2 ZN,CORRIDORFLR2 ZN RETURN AIR NODE
 Controlled Zone,CORRIDORFLR3 ZN,CORRIDORFLR3 ZN EQUIPMENT LIST,,NODE 7,1,1,1
   Controlled Zone Inlet,1,CORRIDORFLR3 ZN,NODE 9,Undefined,N/A
   Controlled Zone Exhaust,1,CORRIDORFLR3 ZN,NODE 8
   Controlled Zone Return,1,CORRIDORFLR3 ZN,CORRIDORFLR3 ZN RETURN AIR NODE
 Controlled Zone,CORRIDORFLR4 ZN,CORRIDORFLR4 ZN EQUIPMENT LIST,,NODE 10,1,1,1
   Controlled Zone Inlet,1,CORRIDORFLR4 ZN,NODE 12,Undefined,N/A
   Controlled Zone Exhaust,1,CORRIDORFLR4 ZN,NODE 11
   Controlled Zone Return,1,CORRIDORFLR4 ZN,CORRIDORFLR4 ZN RETURN AIR NODE
 Controlled Zone,ELEVATORCOREFLR1 ZN,ELEVATORCOREFLR1 ZN EQUIPMENT LIST,,NODE 13,1,1,1
   Controlled Zone Inlet,1,ELEVATORCOREFLR1 ZN,NODE 15,Undefined,N/A
   Controlled Zone Exhaust,1,ELEVATORCOREFLR1 ZN,NODE 14
   Controlled Zone Return,1,ELEVATORCOREFLR1 ZN,ELEVATORCOREFLR1 ZN RETURN AIR NODE
 Controlled Zone,ELEVATORCOREFLR2 ZN,ELEVATORCOREFLR2 ZN EQUIPMENT LIST,,NODE 16,1,1,1
   Controlled Zone Inlet,1,ELEVATORCOREFLR2 ZN,NODE 18,Undefined,N/A
   Controlled Zone Exhaust,1,ELEVATORCOREFLR2 ZN,NODE 17
   Controlled Zone Return,1,ELEVATORCOREFLR2 ZN,ELEVATORCOREFLR2 ZN RETURN AIR NODE
 Controlled Zone,ELEVATORCOREFLR3 ZN,ELEVATORCOREFLR3 ZN EQUIPMENT LIST,,NODE 19,1,1,1
   Controlled Zone Inlet,1,ELEVATORCOREFLR3 ZN,NODE 21,Undefined,N/A
   Controlled Zone Exhaust,1,ELEVATORCOREFLR3 ZN,NODE 20
   Controlled Zone Return,1,ELEVATORCOREFLR3 ZN,ELEVATORCOREFLR3 ZN RETURN AIR NODE
 Controlled Zone,ELEVATORCOREFLR4 ZN,ELEVATORCOREFLR4 ZN EQUIPMENT LIST,,NODE 22,1,1,1
   Controlled Zone Inlet,1,ELEVATORCOREFLR4 ZN,NODE 24,Undefined,N/A
   Controlled Zone Exhaust,1,ELEVATORCOREFLR4 ZN,NODE 23
   Controlled Zone Return,1,ELEVATORCOREFLR4 ZN,ELEVATORCOREFLR4 ZN RETURN AIR NODE
 Controlled Zone,EMPLOYEELOUNGEFLR1 ZN,EMPLOYEELOUNGEFLR1 ZN EQUIPMENT LIST,,NODE 25,1,1,1
   Controlled Zone Inlet,1,EMPLOYEELOUNGEFLR1 ZN,NODE 27,Undefined,N/A
   Controlled Zone Exhaust,1,EMPLOYEELOUNGEFLR1 ZN,NODE 26
   Controlled Zone Return,1,EMPLOYEELOUNGEFLR1 ZN,EMPLOYEELOUNGEFLR1 ZN RETURN AIR NODE
 Controlled Zone,EXERCISECENTERFLR1 ZN,EXERCISECENTERFLR1 ZN EQUIPMENT LIST,,NODE 28,1,1,1
   Controlled Zone Inlet,1,EXERCISECENTERFLR1 ZN,NODE 30,Undefined,N/A
   Controlled Zone Exhaust,1,EXERCISECENTERFLR1 ZN,NODE 29
   Controlled Zone Return,1,EXERCISECENTERFLR1 ZN,EXERCISECENTERFLR1 ZN RETURN AIR NODE
 Controlled Zone,FRONTLOUNGEFLR1 ZN,FRONTLOUNGEFLR1 ZN EQUIPMENT LIST,,NODE 31,1,1,1
   Controlled Zone Inlet,1,FRONTLOUNGEFLR1 ZN,NODE 33,Undefined,N/A
   Controlled Zone Exhaust,1,FRONTLOUNGEFLR1 ZN,NODE 32
   Controlled Zone Return,1,FRONTLOUNGEFLR1 ZN,FRONTLOUNGEFLR1 ZN RETURN AIR NODE
 Controlled Zone,FRONTOFFICEFLR1 ZN,FRONTOFFICEFLR1 ZN EQUIPMENT LIST,,NODE 34,1,1,1
   Controlled Zone Inlet,1,FRONTOFFICEFLR1 ZN,NODE 36,Undefined,N/A
   Controlled Zone Exhaust,1,FRONTOFFICEFLR1 ZN,NODE 35
   Controlled Zone Return,1,FRONTOFFICEFLR1 ZN,FRONTOFFICEFLR1 ZN RETURN AIR NODE
 Controlled Zone,FRONTSTAIRSFLR1 ZN,FRONTSTAIRSFLR1 ZN EQUIPMENT LIST,,NODE 37,1,1,1
   Controlled Zone Inlet,1,FRONTSTAIRSFLR1 ZN,NODE 39,Undefined,N/A
   Controlled Zone Exhaust,1,FRONTSTAIRSFLR1 ZN,NODE 38
   Controlled Zone Return,1,FRONTSTAIRSFLR1 ZN,FRONTSTAIRSFLR1 ZN RETURN AIR NODE
 Controlled Zone,FRONTSTAIRSFLR2 ZN,FRONTSTAIRSFLR2 ZN EQUIPMENT LIST,,NODE 40,1,1,1
   Controlled Zone Inlet,1,FRONTSTAIRSFLR2 ZN,NODE 42,Undefined,N/A
   Controlled Zone Exhaust,1,FRONTSTAIRSFLR2 ZN,NODE 41
   Controlled Zone Return,1,FRONTSTAIRSFLR2 ZN,FRONTSTAIRSFLR2 ZN RETURN AIR NODE
 Controlled Zone,FRONTSTAIRSFLR3 ZN,FRONTSTAIRSFLR3 ZN EQUIPMENT LIST,,NODE 43,1,1,1
   Controlled Zone Inlet,1,FRONTSTAIRSFLR3 ZN,NODE 45,Undefined,N/A
   Controlled Zone Exhaust,1,FRONTSTAIRSFLR3 ZN,NODE 44
   Controlled Zone Return,1,FRONTSTAIRSFLR3 ZN,FRONTSTAIRSFLR3 ZN RETURN AIR NODE
 Controlled Zone,FRONTSTAIRSFLR4 ZN,FRONTSTAIRSFLR4 ZN EQUIPMENT LIST,,NODE 46,1,1,1
   Controlled Zone Inlet,1,FRONTSTAIRSFLR4 ZN,NODE 48,Undefined,N/A
   Controlled Zone Exhaust,1,FRONTSTAIRSFLR4 ZN,NODE 47
   Controlled Zone Return,1,FRONTSTAIRSFLR4 ZN,FRONTSTAIRSFLR4 ZN RETURN AIR NODE
 Controlled Zone,FRONTSTORAGEFLR1 ZN,FRONTSTORAGEFLR1 ZN EQUIPMENT LIST,,NODE 49,1,1,1
   Controlled Zone Inlet,1,FRONTSTORAGEFLR1 ZN,NODE 51,Undefined,N/A
   Controlled Zone Exhaust,1,FRONTSTORAGEFLR1 ZN,NODE 50
   Controlled Zone Return,1,FRONTSTORAGEFLR1 ZN,FRONTSTORAGEFLR1 ZN RETURN AIR NODE
 Controlled Zone,FRONTSTORAGEFLR2 ZN,FRONTSTORAGEFLR2 ZN EQUIPMENT LIST,,NODE 52,1,1,1
   Controlled Zone Inlet,1,FRONTSTORAGEFLR2 ZN,NODE 54,Undefined,N/A
   Controlled Zone Exhaust,1,FRONTSTORAGEFLR2 ZN,NODE 53
   Controlled Zone Return,1,FRONTSTORAGEFLR2 ZN,FRONTSTORAGEFLR2 ZN RETURN AIR NODE
 Controlled Zone,FRONTSTORAGEFLR3 ZN,FRONTSTORAGEFLR3 ZN EQUIPMENT LIST,,NODE 55,1,1,1
   Controlled Zone Inlet,1,FRONTSTORAGEFLR3 ZN,NODE 57,Undefined,N/A
   Controlled Zone Exhaust,1,FRONTSTORAGEFLR3 ZN,NODE 56
   Controlled Zone Return,1,FRONTSTORAGEFLR3 ZN,FRONTSTORAGEFLR3 ZN RETURN AIR NODE
 Controlled Zone,FRONTSTORAGEFLR4 ZN,FRONTSTORAGEFLR4 ZN EQUIPMENT LIST,,NODE 58,1,1,1
   Controlled Zone Inlet,1,FRONTSTORAGEFLR4 ZN,NODE 60,Undefined,N/A
   Controlled Zone Exhaust,1,FRONTSTORAGEFLR4 ZN,NODE 59
   Controlled Zone Return,1,FRONTSTORAGEFLR4 ZN,FRONTSTORAGEFLR4 ZN RETURN AIR NODE
 Controlled Zone,GUESTROOM101 ZN,GUESTROOM101 ZN EQUIPMENT LIST,,NODE 61,1,1,1
   Controlled Zone Inlet,1,GUESTROOM101 ZN,NODE 63,Undefined,N/A
   Controlled Zone Exhaust,1,GUESTROOM101 ZN,NODE 62
   Controlled Zone Return,1,GUESTROOM101 ZN,GUESTROOM101 ZN RETURN AIR NODE
 Controlled Zone,GUESTROOM102 ZN,GUESTROOM102 ZN EQUIPMENT LIST,,NODE 64,1,1,1
   Controlled Zone Inlet,1,GUESTROOM102 ZN,NODE 66,Undefined,N/A
   Controlled Zone Exhaust,1,GUESTROOM102 ZN,NODE 65
   Controlled Zone Return,1,GUESTROOM102 ZN,GUESTROOM102 ZN RETURN AIR NODE
 Controlled Zone,GUESTROOM103 ZN,GUESTROOM103 ZN EQUIPMENT LIST,,NODE 67,1,1,1
   Controlled Zone Inlet,1,GUESTROOM103 ZN,NODE 69,Undefined,N/A
   Controlled Zone Exhaust,1,GUESTROOM103 ZN,NODE 68
   Controlled Zone Return,1,GUESTROOM103 ZN,GUESTROOM103 ZN RETURN AIR NODE
 Controlled Zone,GUESTROOM104 ZN,GUESTROOM104 ZN EQUIPMENT LIST,,NODE 70,1,1,1
   Controlled Zone Inlet,1,GUESTROOM104 ZN,NODE 72,Undefined,N/A
   Controlled Zone Exhaust,1,GUESTROOM104 ZN,NODE 71
   Controlled Zone Return,1,GUESTROOM104 ZN,GUESTROOM104 ZN RETURN AIR NODE
 Controlled Zone,GUESTROOM105 ZN,GUESTROOM105 ZN EQUIPMENT LIST,,NODE 73,1,1,1
   Controlled Zone Inlet,1,GUESTROOM105 ZN,NODE 75,Undefined,N/A
   Controlled Zone Exhaust,1,GUESTROOM105 ZN,NODE 74
   Controlled Zone Return,1,GUESTROOM105 ZN,GUESTROOM105 ZN RETURN AIR NODE
 Controlled Zone,GUESTROOM201 ZN,GUESTROOM201 ZN EQUIPMENT LIST,,NODE 76,1,1,1
   Controlled Zone Inlet,1,GUESTROOM201 ZN,NODE 78,Undefined,N/A
   Controlled Zone Exhaust,1,GUESTROOM201 ZN,NODE 77
   Controlled Zone Return,1,GUESTROOM201 ZN,GUESTROOM201 ZN RETURN AIR NODE
 Controlled Zone,GUESTROOM202_205 ZN,GUESTROOM202_205 ZN EQUIPMENT LIST,,NODE 79,1,1,1
   Controlled Zone Inlet,1,GUESTROOM202_205 ZN,NODE 81,Undefined,N/A
   Controlled Zone Exhaust,1,GUESTROOM202_205 ZN,NODE 80
   Controlled Zone Return,1,GUESTROOM202_205 ZN,GUESTROOM202_205 ZN RETURN AIR NODE
 Controlled Zone,GUESTROOM206_208 ZN,GUESTROOM206_208 ZN EQUIPMENT LIST,,NODE 82,1,1,1
   Controlled Zone Inlet,1,GUESTROOM206_208 ZN,NODE 84,Undefined,N/A
   Controlled Zone Exhaust,1,GUESTROOM206_208 ZN,NODE 83
   Controlled Zone Return,1,GUESTROOM206_208 ZN,GUESTROOM206_208 ZN RETURN AIR NODE
 Controlled Zone,GUESTROOM209_212 ZN,GUESTROOM209_212 ZN EQUIPMENT LIST,,NODE 85,1,1,1
   Controlled Zone Inlet,1,GUESTROOM209_212 ZN,NODE 87,Undefined,N/A
   Controlled Zone Exhaust,1,GUESTROOM209_212 ZN,NODE 86
   Controlled Zone Return,1,GUESTROOM209_212 ZN,GUESTROOM209_212 ZN RETURN AIR NODE
 Controlled Zone,GUESTROOM213 ZN,GUESTROOM213 ZN EQUIPMENT LIST,,NODE 88,1,1,1
   Controlled Zone Inlet,1,GUESTROOM213 ZN,NODE 90,Undefined,N/A
   Controlled Zone Exhaust,1,GUESTROOM213 ZN,NODE 89
   Controlled Zone Return,1,GUESTROOM213 ZN,GUESTROOM213 ZN RETURN AIR NODE
 Controlled Zone,GUESTROOM214 ZN,GUESTROOM214 ZN EQUIPMENT LIST,,NODE 91,1,1,1
   Controlled Zone Inlet,1,GUESTROOM214 ZN,NODE 93,Undefined,N/A
   Controlled Zone Exhaust,1,GUESTROOM214 ZN,NODE 92
   Controlled Zone Return,1,GUESTROOM214 ZN,GUESTROOM214 ZN RETURN AIR NODE
 Controlled Zone,GUESTROOM215_218 ZN,GUESTROOM215_218 ZN EQUIPMENT LIST,,NODE 94,1,1,1
   Controlled Zone Inlet,1,GUESTROOM215_218 ZN,NODE 96,Undefined,N/A
   Controlled Zone Exhaust,1,GUESTROOM215_218 ZN,NODE 95
   Controlled Zone Return,1,GUESTROOM215_218 ZN,GUESTROOM215_218 ZN RETURN AIR NODE
 Controlled Zone,GUESTROOM219 ZN,GUESTROOM219 ZN EQUIPMENT LIST,,NODE 97,1,1,1
   Controlled Zone Inlet,1,GUESTROOM219 ZN,NODE 99,Undefined,N/A
   Controlled Zone Exhaust,1,GUESTROOM219 ZN,NODE 98
   Controlled Zone Return,1,GUESTROOM219 ZN,GUESTROOM219 ZN RETURN AIR NODE
 Controlled Zone,GUESTROOM220_223 ZN,GUESTROOM220_223 ZN EQUIPMENT LIST,,NODE 100,1,1,1
   Controlled Zone Inlet,1,GUESTROOM220_223 ZN,NODE 102,Undefined,N/A
   Controlled Zone Exhaust,1,GUESTROOM220_223 ZN,NODE 101
   Controlled Zone Return,1,GUESTROOM220_223 ZN,GUESTROOM220_223 ZN RETURN AIR NODE
 Controlled Zone,GUESTROOM224 ZN,GUESTROOM224 ZN EQUIPMENT LIST,,NODE 103,1,1,1
   Controlled Zone Inlet,1,GUESTROOM224 ZN,NODE 105,Undefined,N/A
   Controlled Zone Exhaust,1,GUESTROOM224 ZN,NODE 104
   Controlled Zone Return,1,GUESTROOM224 ZN,GUESTROOM224 ZN RETURN AIR NODE
 Controlled Zone,GUESTROOM301 ZN,GUESTROOM301 ZN EQUIPMENT LIST,,NODE 106,1,1,1
   Controlled Zone Inlet,1,GUESTROOM301 ZN,NODE 108,Undefined,N/A
   Controlled Zone Exhaust,1,GUESTROOM301 ZN,NODE 107
   Controlled Zone Return,1,GUESTROOM301 ZN,GUESTROOM301 ZN RETURN AIR NODE
 Controlled Zone,GUESTROOM302_305 ZN,GUESTROOM302_305 ZN EQUIPMENT LIST,,NODE 109,1,1,1
   Controlled Zone Inlet,1,GUESTROOM302_305 ZN,NODE 111,Undefined,N/A
   Controlled Zone Exhaust,1,GUESTROOM302_305 ZN,NODE 110
   Controlled Zone Return,1,GUESTROOM302_305 ZN,GUESTROOM302_305 ZN RETURN AIR NODE
 Controlled Zone,GUESTROOM306_308 ZN,GUESTROOM306_308 ZN EQUIPMENT LIST,,NODE 112,1,1,1
   Controlled Zone Inlet,1,GUESTROOM306_308 ZN,NODE 114,Undefined,N/A
   Controlled Zone Exhaust,1,GUESTROOM306_308 ZN,NODE 113
   Controlled Zone Return,1,GUESTROOM306_308 ZN,GUESTROOM306_308 ZN RETURN AIR NODE
 Controlled Zone,GUESTROOM309_312 ZN,GUESTROOM309_312 ZN EQUIPMENT LIST,,NODE 115,1,1,1
   Controlled Zone Inlet,1,GUESTROOM309_312 ZN,NODE 117,Undefined,N/A
   Controlled Zone Exhaust,1,GUESTROOM309_312 ZN,NODE 116
   Controlled Zone Return,1,GUESTROOM309_312 ZN,GUESTROOM309_312 ZN RETURN AIR NODE
 Controlled Zone,GUESTROOM313 ZN,GUESTROOM313 ZN EQUIPMENT LIST,,NODE 118,1,1,1
   Controlled Zone Inlet,1,GUESTROOM313 ZN,NODE 120,Undefined,N/A
   Controlled Zone Exhaust,1,GUESTROOM313 ZN,NODE 119
   Controlled Zone Return,1,GUESTROOM313 ZN,GUESTROOM313 ZN RETURN AIR NODE
 Controlled Zone,GUESTROOM314 ZN,GUESTROOM314 ZN EQUIPMENT LIST,,NODE 121,1,1,1
   Controlled Zone Inlet,1,GUESTROOM314 ZN,NODE 123,Undefined,N/A
   Controlled Zone Exhaust,1,GUESTROOM314 ZN,NODE 122
   Controlled Zone Return,1,GUESTROOM314 ZN,GUESTROOM314 ZN RETURN AIR NODE
 Controlled Zone,GUESTROOM315_318 ZN,GUESTROOM315_318 ZN EQUIPMENT LIST,,NODE 124,1,1,1
   Controlled Zone Inlet,1,GUESTROOM315_318 ZN,NODE 126,Undefined,N/A
   Controlled Zone Exhaust,1,GUESTROOM315_318 ZN,NODE 125
   Controlled Zone Return,1,GUESTROOM315_318 ZN,GUESTROOM315_318 ZN RETURN AIR NODE
 Controlled Zone,GUESTROOM319 ZN,GUESTROOM319 ZN EQUIPMENT LIST,,NODE 127,1,1,1
   Controlled Zone Inlet,1,GUESTROOM319 ZN,NODE 129,Undefined,N/A
   Controlled Zone Exhaust,1,GUESTROOM319 ZN,NODE 128
   Controlled Zone Return,1,GUESTROOM319 ZN,GUESTROOM319 ZN RETURN AIR NODE
 Controlled Zone,GUESTROOM320_323 ZN,GUESTROOM320_323 ZN EQUIPMENT LIST,,NODE 130,1,1,1
   Controlled Zone Inlet,1,GUESTROOM320_323 ZN,NODE 132,Undefined,N/A
   Controlled Zone Exhaust,1,GUESTROOM320_323 ZN,NODE 131
   Controlled Zone Return,1,GUESTROOM320_323 ZN,GUESTROOM320_323 ZN RETURN AIR NODE
 Controlled Zone,GUESTROOM324 ZN,GUESTROOM324 ZN EQUIPMENT LIST,,NODE 133,1,1,1
   Controlled Zone Inlet,1,GUESTROOM324 ZN,NODE 135,Undefined,N/A
   Controlled Zone Exhaust,1,GUESTROOM324 ZN,NODE 134
   Controlled Zone Return,1,GUESTROOM324 ZN,GUESTROOM324 ZN RETURN AIR NODE
 Controlled Zone,GUESTROOM401 ZN,GUESTROOM401 ZN EQUIPMENT LIST,,NODE 136,1,1,1
   Controlled Zone Inlet,1,GUESTROOM401 ZN,NODE 138,Undefined,N/A
   Controlled Zone Exhaust,1,GUESTROOM401 ZN,NODE 137
   Controlled Zone Return,1,GUESTROOM401 ZN,GUESTROOM401 ZN RETURN AIR NODE
 Controlled Zone,GUESTROOM402_405 ZN,GUESTROOM402_405 ZN EQUIPMENT LIST,,NODE 139,1,1,1
   Controlled Zone Inlet,1,GUESTROOM402_405 ZN,NODE 141,Undefined,N/A
   Controlled Zone Exhaust,1,GUESTROOM402_405 ZN,NODE 140
   Controlled Zone Return,1,GUESTROOM402_405 ZN,GUESTROOM402_405 ZN RETURN AIR NODE
 Controlled Zone,GUESTROOM406_408 ZN,GUESTROOM406_408 ZN EQUIPMENT LIST,,NODE 142,1,1,1
   Controlled Zone Inlet,1,GUESTROOM406_408 ZN,NODE 144,Undefined,N/A
   Controlled Zone Exhaust,1,GUESTROOM406_408 ZN,NODE 143
   Controlled Zone Return,1,GUESTROOM406_408 ZN,GUESTROOM406_408 ZN RETURN AIR NODE
 Controlled Zone,GUESTROOM409_412 ZN,GUESTROOM409_412 ZN EQUIPMENT LIST,,NODE 145,1,1,1
   Controlled Zone Inlet,1,GUESTROOM409_412 ZN,NODE 147,Undefined,N/A
   Controlled Zone Exhaust,1,GUESTROOM409_412 ZN,NODE 146
   Controlled Zone Return,1,GUESTROOM409_412 ZN,GUESTROOM409_412 ZN RETURN AIR NODE
 Controlled Zone,GUESTROOM413 ZN,GUESTROOM413 ZN EQUIPMENT LIST,,NODE 148,1,1,1
   Controlled Zone Inlet,1,GUESTROOM413 ZN,NODE 150,Undefined,N/A
   Controlled Zone Exhaust,1,GUESTROOM413 ZN,NODE 149
   Controlled Zone Return,1,GUESTROOM413 ZN,GUESTROOM413 ZN RETURN AIR NODE
 Controlled Zone,GUESTROOM414 ZN,GUESTROOM414 ZN EQUIPMENT LIST,,NODE 151,1,1,1
   Controlled Zone Inlet,1,GUESTROOM414 ZN,NODE 153,Undefined,N/A
   Controlled Zone Exhaust,1,GUESTROOM414 ZN,NODE 152
   Controlled Zone Return,1,GUESTROOM414 ZN,GUESTROOM414 ZN RETURN AIR NODE
 Controlled Zone,GUESTROOM415_418 ZN,GUESTROOM415_418 ZN EQUIPMENT LIST,,NODE 154,1,1,1
   Controlled Zone Inlet,1,GUESTROOM415_418 ZN,NODE 156,Undefined,N/A
   Controlled Zone Exhaust,1,GUESTROOM415_418 ZN,NODE 155
   Controlled Zone Return,1,GUESTROOM415_418 ZN,GUESTROOM415_418 ZN RETURN AIR NODE
 Controlled Zone,GUESTROOM419 ZN,GUESTROOM419 ZN EQUIPMENT LIST,,NODE 157,1,1,1
   Controlled Zone Inlet,1,GUESTROOM419 ZN,NODE 159,Undefined,N/A
   Controlled Zone Exhaust,1,GUESTROOM419 ZN,NODE 158
   Controlled Zone Return,1,GUESTROOM419 ZN,GUESTROOM419 ZN RETURN AIR NODE
 Controlled Zone,GUESTROOM420_423 ZN,GUESTROOM420_423 ZN EQUIPMENT LIST,,NODE 160,1,1,1
   Controlled Zone Inlet,1,GUESTROOM420_423 ZN,NODE 162,Undefined,N/A
   Controlled Zone Exhaust,1,GUESTROOM420_423 ZN,NODE 161
   Controlled Zone Return,1,GUESTROOM420_423 ZN,GUESTROOM420_423 ZN RETURN AIR NODE
 Controlled Zone,GUESTROOM424 ZN,GUESTROOM424 ZN EQUIPMENT LIST,,NODE 163,1,1,1
   Controlled Zone Inlet,1,GUESTROOM424 ZN,NODE 165,Undefined,N/A
   Controlled Zone Exhaust,1,GUESTROOM424 ZN,NODE 164
   Controlled Zone Return,1,GUESTROOM424 ZN,GUESTROOM424 ZN RETURN AIR NODE
 Controlled Zone,LAUNDRYROOMFLR1 ZN,LAUNDRYROOMFLR1 ZN EQUIPMENT LIST,,NODE 166,1,1,1
   Controlled Zone Inlet,1,LAUNDRYROOMFLR1 ZN,NODE 168,Undefined,N/A
   Controlled Zone Exhaust,1,LAUNDRYROOMFLR1 ZN,NODE 167
   Controlled Zone Return,1,LAUNDRYROOMFLR1 ZN,LAUNDRYROOMFLR1 ZN RETURN AIR NODE
 Controlled Zone,MECHANICALROOMFLR1 ZN,MECHANICALROOMFLR1 ZN EQUIPMENT LIST,,NODE 169,1,1,1
   Controlled Zone Inlet,1,MECHANICALROOMFLR1 ZN,NODE 171,Undefined,N/A
   Controlled Zone Exhaust,1,MECHANICALROOMFLR1 ZN,NODE 170
   Controlled Zone Return,1,MECHANICALROOMFLR1 ZN,MECHANICALROOMFLR1 ZN RETURN AIR NODE
 Controlled Zone,MEETINGROOMFLR1 ZN,MEETINGROOMFLR1 ZN EQUIPMENT LIST,,NODE 172,1,1,1
   Controlled Zone Inlet,1,MEETINGROOMFLR1 ZN,NODE 174,Undefined,N/A
   Controlled Zone Exhaust,1,MEETINGROOMFLR1 ZN,NODE 173
   Controlled Zone Return,1,MEETINGROOMFLR1 ZN,MEETINGROOMFLR1 ZN RETURN AIR NODE
 Controlled Zone,REARSTAIRSFLR1 ZN,REARSTAIRSFLR1 ZN EQUIPMENT LIST,,NODE 175,1,1,1
   Controlled Zone Inlet,1,REARSTAIRSFLR1 ZN,NODE 177,Undefined,N/A
   Controlled Zone Exhaust,1,REARSTAIRSFLR1 ZN,NODE 176
   Controlled Zone Return,1,REARSTAIRSFLR1 ZN,REARSTAIRSFLR1 ZN RETURN AIR NODE
 Controlled Zone,REARSTAIRSFLR2 ZN,REARSTAIRSFLR2 ZN EQUIPMENT LIST,,NODE 178,1,1,1
   Controlled Zone Inlet,1,REARSTAIRSFLR2 ZN,NODE 180,Undefined,N/A
   Controlled Zone Exhaust,1,REARSTAIRSFLR2 ZN,NODE 179
   Controlled Zone Return,1,REARSTAIRSFLR2 ZN,REARSTAIRSFLR2 ZN RETURN AIR NODE
 Controlled Zone,REARSTAIRSFLR3 ZN,REARSTAIRSFLR3 ZN EQUIPMENT LIST,,NODE 181,1,1,1
   Controlled Zone Inlet,1,REARSTAIRSFLR3 ZN,NODE 183,Undefined,N/A
   Controlled Zone Exhaust,1,REARSTAIRSFLR3 ZN,NODE 182
   Controlled Zone Return,1,REARSTAIRSFLR3 ZN,REARSTAIRSFLR3 ZN RETURN AIR NODE
 Controlled Zone,REARSTAIRSFLR4 ZN,REARSTAIRSFLR4 ZN EQUIPMENT LIST,,NODE 184,1,1,1
   Controlled Zone Inlet,1,REARSTAIRSFLR4 ZN,NODE 186,Undefined,N/A
   Controlled Zone Exhaust,1,REARSTAIRSFLR4 ZN,NODE 185
   Controlled Zone Return,1,REARSTAIRSFLR4 ZN,REARSTAIRSFLR4 ZN RETURN AIR NODE
 Controlled Zone,REARSTORAGEFLR1 ZN,REARSTORAGEFLR1 ZN EQUIPMENT LIST,,NODE 187,1,1,1
   Controlled Zone Inlet,1,REARSTORAGEFLR1 ZN,NODE 189,Undefined,N/A
   Controlled Zone Exhaust,1,REARSTORAGEFLR1 ZN,NODE 188
   Controlled Zone Return,1,REARSTORAGEFLR1 ZN,REARSTORAGEFLR1 ZN RETURN AIR NODE
 Controlled Zone,REARSTORAGEFLR2 ZN,REARSTORAGEFLR2 ZN EQUIPMENT LIST,,NODE 190,1,1,1
   Controlled Zone Inlet,1,REARSTORAGEFLR2 ZN,NODE 192,Undefined,N/A
   Controlled Zone Exhaust,1,REARSTORAGEFLR2 ZN,NODE 191
   Controlled Zone Return,1,REARSTORAGEFLR2 ZN,REARSTORAGEFLR2 ZN RETURN AIR NODE
 Controlled Zone,REARSTORAGEFLR3 ZN,REARSTORAGEFLR3 ZN EQUIPMENT LIST,,NODE 193,1,1,1
   Controlled Zone Inlet,1,REARSTORAGEFLR3 ZN,NODE 195,Undefined,N/A
   Controlled Zone Exhaust,1,REARSTORAGEFLR3 ZN,NODE 194
   Controlled Zone Return,1,REARSTORAGEFLR3 ZN,REARSTORAGEFLR3 ZN RETURN AIR NODE
 Controlled Zone,REARSTORAGEFLR4 ZN,REARSTORAGEFLR4 ZN EQUIPMENT LIST,,NODE 196,1,1,1
   Controlled Zone Inlet,1,REARSTORAGEFLR4 ZN,NODE 198,Undefined,N/A
   Controlled Zone Exhaust,1,REARSTORAGEFLR4 ZN,NODE 197
   Controlled Zone Return,1,REARSTORAGEFLR4 ZN,REARSTORAGEFLR4 ZN RETURN AIR NODE
 Controlled Zone,RESTROOMFLR1 ZN,RESTROOMFLR1 ZN EQUIPMENT LIST,,NODE 199,1,1,1
   Controlled Zone Inlet,1,RESTROOMFLR1 ZN,NODE 201,Undefined,N/A
   Controlled Zone Exhaust,1,RESTROOMFLR1 ZN,NODE 200
   Controlled Zone Return,1,RESTROOMFLR1 ZN,RESTROOMFLR1 ZN RETURN AIR NODE
! ===============================================================
! <#Zone Equipment Lists>,<Number of Zone Equipment Lists>
 #Zone Equipment Lists,67
! <Zone Equipment List>,<Zone Equipment List Count>,<Zone Equipment List Name>,<Zone Name>,<Number of Components>
! <Zone Equipment Component>,<Component Count>,<Component Type>,<Component Name>,<Zone Name>,<Heating Priority>,<Cooling Priority>
 Zone Equipment List,1,CORRIDORFLR1 ZN EQUIPMENT LIST,CORRIDORFLR1 ZN,1
   Zone Equipment Component,1,ZONEHVAC:IDEALLOADSAIRSYSTEM,ZONE HVAC IDEAL LOADS AIR SYSTEM 1,CORRIDORFLR1 ZN,1,1
 Zone Equipment List,2,CORRIDORFLR2 ZN EQUIPMENT LIST,CORRIDORFLR2 ZN,1
   Zone Equipment Component,1,ZONEHVAC:IDEALLOADSAIRSYSTEM,ZONE HVAC IDEAL LOADS AIR SYSTEM 2,CORRIDORFLR2 ZN,1,1
 Zone Equipment List,3,CORRIDORFLR3 ZN EQUIPMENT LIST,CORRIDORFLR3 ZN,1
   Zone Equipment Component,1,ZONEHVAC:IDEALLOADSAIRSYSTEM,ZONE HVAC IDEAL LOADS AIR SYSTEM 3,CORRIDORFLR3 ZN,1,1
 Zone Equipment List,4,CORRIDORFLR4 ZN EQUIPMENT LIST,CORRIDORFLR4 ZN,1
   Zone Equipment Component,1,ZONEHVAC:IDEALLOADSAIRSYSTEM,ZONE HVAC IDEAL LOADS AIR SYSTEM 4,CORRIDORFLR4 ZN,1,1
 Zone Equipment List,5,ELEVATORCOREFLR1 ZN EQUIPMENT LIST,ELEVATORCOREFLR1 ZN,1
   Zone Equipment Component,1,ZONEHVAC:IDEALLOADSAIRSYSTEM,ZONE HVAC IDEAL LOADS AIR SYSTEM 5,ELEVATORCOREFLR1 ZN,1,1
 Zone Equipment List,6,ELEVATORCOREFLR2 ZN EQUIPMENT LIST,ELEVATORCOREFLR2 ZN,1
   Zone Equipment Component,1,ZONEHVAC:IDEALLOADSAIRSYSTEM,ZONE HVAC IDEAL LOADS AIR SYSTEM 6,ELEVATORCOREFLR2 ZN,1,1
 Zone Equipment List,7,ELEVATORCOREFLR3 ZN EQUIPMENT LIST,ELEVATORCOREFLR3 ZN,1
   Zone Equipment Component,1,ZONEHVAC:IDEALLOADSAIRSYSTEM,ZONE HVAC IDEAL LOADS AIR SYSTEM 7,ELEVATORCOREFLR3 ZN,1,1
 Zone Equipment List,8,ELEVATORCOREFLR4 ZN EQUIPMENT LIST,ELEVATORCOREFLR4 ZN,1
   Zone Equipment Component,1,ZONEHVAC:IDEALLOADSAIRSYSTEM,ZONE HVAC IDEAL LOADS AIR SYSTEM 8,ELEVATORCOREFLR4 ZN,1,1
 Zone Equipment List,9,EMPLOYEELOUNGEFLR1 ZN EQUIPMENT LIST,EMPLOYEELOUNGEFLR1 ZN,1
   Zone Equipment Component,1,ZONEHVAC:IDEALLOADSAIRSYSTEM,ZONE HVAC IDEAL LOADS AIR SYSTEM 9,EMPLOYEELOUNGEFLR1 ZN,1,1
 Zone Equipment List,10,EXERCISECENTERFLR1 ZN EQUIPMENT LIST,EXERCISECENTERFLR1 ZN,1
   Zone Equipment Component,1,ZONEHVAC:IDEALLOADSAIRSYSTEM,ZONE HVAC IDEAL LOADS AIR SYSTEM 10,EXERCISECENTERFLR1 ZN,1,1
 Zone Equipment List,11,FRONTLOUNGEFLR1 ZN EQUIPMENT LIST,FRONTLOUNGEFLR1 ZN,1
   Zone Equipment Component,1,ZONEHVAC:IDEALLOADSAIRSYSTEM,ZONE HVAC IDEAL LOADS AIR SYSTEM 11,FRONTLOUNGEFLR1 ZN,1,1
 Zone Equipment List,12,FRONTOFFICEFLR1 ZN EQUIPMENT LIST,FRONTOFFICEFLR1 ZN,1
   Zone Equipment Component,1,ZONEHVAC:IDEALLOADSAIRSYSTEM,ZONE HVAC IDEAL LOADS AIR SYSTEM 12,FRONTOFFICEFLR1 ZN,1,1
 Zone Equipment List,13,FRONTSTAIRSFLR1 ZN EQUIPMENT LIST,FRONTSTAIRSFLR1 ZN,1
   Zone Equipment Component,1,ZONEHVAC:IDEALLOADSAIRSYSTEM,ZONE HVAC IDEAL LOADS AIR SYSTEM 13,FRONTSTAIRSFLR1 ZN,1,1
 Zone Equipment List,14,FRONTSTAIRSFLR2 ZN EQUIPMENT LIST,FRONTSTAIRSFLR2 ZN,1
   Zone Equipment Component,1,ZONEHVAC:IDEALLOADSAIRSYSTEM,ZONE HVAC IDEAL LOADS AIR SYSTEM 14,FRONTSTAIRSFLR2 ZN,1,1
 Zone Equipment List,15,FRONTSTAIRSFLR3 ZN EQUIPMENT LIST,FRONTSTAIRSFLR3 ZN,1
   Zone Equipment Component,1,ZONEHVAC:IDEALLOADSAIRSYSTEM,ZONE HVAC IDEAL LOADS AIR SYSTEM 15,FRONTSTAIRSFLR3 ZN,1,1
 Zone Equipment List,16,FRONTSTAIRSFLR4 ZN EQUIPMENT LIST,FRONTSTAIRSFLR4 ZN,1
   Zone Equipment Component,1,ZONEHVAC:IDEALLOADSAIRSYSTEM,ZONE HVAC IDEAL LOADS AIR SYSTEM 16,FRONTSTAIRSFLR4 ZN,1,1
 Zone Equipment List,17,FRONTSTORAGEFLR1 ZN EQUIPMENT LIST,FRONTSTORAGEFLR1 ZN,1
   Zone Equipment Component,1,ZONEHVAC:IDEALLOADSAIRSYSTEM,ZONE HVAC IDEAL LOADS AIR SYSTEM 17,FRONTSTORAGEFLR1 ZN,1,1
 Zone Equipment List,18,FRONTSTORAGEFLR2 ZN EQUIPMENT LIST,FRONTSTORAGEFLR2 ZN,1
   Zone Equipment Component,1,ZONEHVAC:IDEALLOADSAIRSYSTEM,ZONE HVAC IDEAL LOADS AIR SYSTEM 18,FRONTSTORAGEFLR2 ZN,1,1
 Zone Equipment List,19,FRONTSTORAGEFLR3 ZN EQUIPMENT LIST,FRONTSTORAGEFLR3 ZN,1
   Zone Equipment Component,1,ZONEHVAC:IDEALLOADSAIRSYSTEM,ZONE HVAC IDEAL LOADS AIR SYSTEM 19,FRONTSTORAGEFLR3 ZN,1,1
 Zone Equipment List,20,FRONTSTORAGEFLR4 ZN EQUIPMENT LIST,FRONTSTORAGEFLR4 ZN,1
   Zone Equipment Component,1,ZONEHVAC:IDEALLOADSAIRSYSTEM,ZONE HVAC IDEAL LOADS AIR SYSTEM 20,FRONTSTORAGEFLR4 ZN,1,1
 Zone Equipment List,21,GUESTROOM101 ZN EQUIPMENT LIST,GUESTROOM101 ZN,1
   Zone Equipment Component,1,ZONEHVAC:IDEALLOADSAIRSYSTEM,ZONE HVAC IDEAL LOADS AIR SYSTEM 21,GUESTROOM101 ZN,1,1
 Zone Equipment List,22,GUESTROOM102 ZN EQUIPMENT LIST,GUESTROOM102 ZN,1
   Zone Equipment Component,1,ZONEHVAC:IDEALLOADSAIRSYSTEM,ZONE HVAC IDEAL LOADS AIR SYSTEM 22,GUESTROOM102 ZN,1,1
 Zone Equipment List,23,GUESTROOM103 ZN EQUIPMENT LIST,GUESTROOM103 ZN,1
   Zone Equipment Component,1,ZONEHVAC:IDEALLOADSAIRSYSTEM,ZONE HVAC IDEAL LOADS AIR SYSTEM 23,GUESTROOM103 ZN,1,1
 Zone Equipment List,24,GUESTROOM104 ZN EQUIPMENT LIST,GUESTROOM104 ZN,1
   Zone Equipment Component,1,ZONEHVAC:IDEALLOADSAIRSYSTEM,ZONE HVAC IDEAL LOADS AIR SYSTEM 24,GUESTROOM104 ZN,1,1
 Zone Equipment List,25,GUESTROOM105 ZN EQUIPMENT LIST,GUESTROOM105 ZN,1
   Zone Equipment Component,1,ZONEHVAC:IDEALLOADSAIRSYSTEM,ZONE HVAC IDEAL LOADS AIR SYSTEM 25,GUESTROOM105 ZN,1,1
 Zone Equipment List,26,GUESTROOM201 ZN EQUIPMENT LIST,GUESTROOM201 ZN,1
   Zone Equipment Component,1,ZONEHVAC:IDEALLOADSAIRSYSTEM,ZONE HVAC IDEAL LOADS AIR SYSTEM 26,GUESTROOM201 ZN,1,1
 Zone Equipment List,27,GUESTROOM202_205 ZN EQUIPMENT LIST,GUESTROOM202_205 ZN,1
   Zone Equipment Component,1,ZONEHVAC:IDEALLOADSAIRSYSTEM,ZONE HVAC IDEAL LOADS AIR SYSTEM 27,GUESTROOM202_205 ZN,1,1
 Zone Equipment List,28,GUESTROOM206_208 ZN EQUIPMENT LIST,GUESTROOM206_208 ZN,1
   Zone Equipment Component,1,ZONEHVAC:IDEALLOADSAIRSYSTEM,ZONE HVAC IDEAL LOADS AIR SYSTEM 28,GUESTROOM206_208 ZN,1,1
 Zone Equipment List,29,GUESTROOM209_212 ZN EQUIPMENT LIST,GUESTROOM209_212 ZN,1
   Zone Equipment Component,1,ZONEHVAC:IDEALLOADSAIRSYSTEM,ZONE HVAC IDEAL LOADS AIR SYSTEM 29,GUESTROOM209_212 ZN,1,1
 Zone Equipment List,30,GUESTROOM213 ZN EQUIPMENT LIST,GUESTROOM213 ZN,1
   Zone Equipment Component,1,ZONEHVAC:IDEALLOADSAIRSYSTEM,ZONE HVAC IDEAL LOADS AIR SYSTEM 30,GUESTROOM213 ZN,1,1
 Zone Equipment List,31,GUESTROOM214 ZN EQUIPMENT LIST,GUESTROOM214 ZN,1
   Zone Equipment Component,1,ZONEHVAC:IDEALLOADSAIRSYSTEM,ZONE HVAC IDEAL LOADS AIR SYSTEM 31,GUESTROOM214 ZN,1,1
 Zone Equipment List,32,GUESTROOM215_218 ZN EQUIPMENT LIST,GUESTROOM215_218 ZN,1
   Zone Equipment Component,1,ZONEHVAC:IDEALLOADSAIRSYSTEM,ZONE HVAC IDEAL LOADS AIR SYSTEM 32,GUESTROOM215_218 ZN,1,1
 Zone Equipment List,33,GUESTROOM219 ZN EQUIPMENT LIST,GUESTROOM219 ZN,1
   Zone Equipment Component,1,ZONEHVAC:IDEALLOADSAIRSYSTEM,ZONE HVAC IDEAL LOADS AIR SYSTEM 33,GUESTROOM219 ZN,1,1
 Zone Equipment List,34,GUESTROOM220_223 ZN EQUIPMENT LIST,GUESTROOM220_223 ZN,1
   Zone Equipment Component,1,ZONEHVAC:IDEALLOADSAIRSYSTEM,ZONE HVAC IDEAL LOADS AIR SYSTEM 34,GUESTROOM220_223 ZN,1,1
 Zone Equipment List,35,GUESTROOM224 ZN EQUIPMENT LIST,GUESTROOM224 ZN,1
   Zone Equipment Component,1,ZONEHVAC:IDEALLOADSAIRSYSTEM,ZONE HVAC IDEAL LOADS AIR SYSTEM 35,GUESTROOM224 ZN,1,1
 Zone Equipment List,36,GUESTROOM301 ZN EQUIPMENT LIST,GUESTROOM301 ZN,1
   Zone Equipment Component,1,ZONEHVAC:IDEALLOADSAIRSYSTEM,ZONE HVAC IDEAL LOADS AIR SYSTEM 36,GUESTROOM301 ZN,1,1
 Zone Equipment List,37,GUESTROOM302_305 ZN EQUIPMENT LIST,GUESTROOM302_305 ZN,1
   Zone Equipment Component,1,ZONEHVAC:IDEALLOADSAIRSYSTEM,ZONE HVAC IDEAL LOADS AIR SYSTEM 37,GUESTROOM302_305 ZN,1,1
 Zone Equipment List,38,GUESTROOM306_308 ZN EQUIPMENT LIST,GUESTROOM306_308 ZN,1
   Zone Equipment Component,1,ZONEHVAC:IDEALLOADSAIRSYSTEM,ZONE HVAC IDEAL LOADS AIR SYSTEM 38,GUESTROOM306_308 ZN,1,1
 Zone Equipment List,39,GUESTROOM309_312 ZN EQUIPMENT LIST,GUESTROOM309_312 ZN,1
   Zone Equipment Component,1,ZONEHVAC:IDEALLOADSAIRSYSTEM,ZONE HVAC IDEAL LOADS AIR SYSTEM 39,GUESTROOM309_312 ZN,1,1
 Zone Equipment List,40,GUESTROOM313 ZN EQUIPMENT LIST,GUESTROOM313 ZN,1
   Zone Equipment Component,1,ZONEHVAC:IDEALLOADSAIRSYSTEM,ZONE HVAC IDEAL LOADS AIR SYSTEM 40,GUESTROOM313 ZN,1,1
 Zone Equipment List,41,GUESTROOM314 ZN EQUIPMENT LIST,GUESTROOM314 ZN,1
   Zone Equipment Component,1,ZONEHVAC:IDEALLOADSAIRSYSTEM,ZONE HVAC IDEAL LOADS AIR SYSTEM 41,GUESTROOM314 ZN,1,1
 Zone Equipment List,42,GUESTROOM315_318 ZN EQUIPMENT LIST,GUESTROOM315_318 ZN,1
   Zone Equipment Component,1,ZONEHVAC:IDEALLOADSAIRSYSTEM,ZONE HVAC IDEAL LOADS AIR SYSTEM 42,GUESTROOM315_318 ZN,1,1
 Zone Equipment List,43,GUESTROOM319 ZN EQUIPMENT LIST,GUESTROOM319 ZN,1
   Zone Equipment Component,1,ZONEHVAC:IDEALLOADSAIRSYSTEM,ZONE HVAC IDEAL LOADS AIR SYSTEM 43,GUESTROOM319 ZN,1,1
 Zone Equipment List,44,GUESTROOM320_323 ZN EQUIPMENT LIST,GUESTROOM320_323 ZN,1
   Zone Equipment Component,1,ZONEHVAC:IDEALLOADSAIRSYSTEM,ZONE HVAC IDEAL LOADS AIR SYSTEM 44,GUESTROOM320_323 ZN,1,1
 Zone Equipment List,45,GUESTROOM324 ZN EQUIPMENT LIST,GUESTROOM324 ZN,1
   Zone Equipment Component,1,ZONEHVAC:IDEALLOADSAIRSYSTEM,ZONE HVAC IDEAL LOADS AIR SYSTEM 45,GUESTROOM324 ZN,1,1
 Zone Equipment List,46,GUESTROOM401 ZN EQUIPMENT LIST,GUESTROOM401 ZN,1
   Zone Equipment Component,1,ZONEHVAC:IDEALLOADSAIRSYSTEM,ZONE HVAC IDEAL LOADS AIR SYSTEM 46,GUESTROOM401 ZN,1,1
 Zone Equipment List,47,GUESTROOM402_405 ZN EQUIPMENT LIST,GUESTROOM402_405 ZN,1
   Zone Equipment Component,1,ZONEHVAC:IDEALLOADSAIRSYSTEM,ZONE HVAC IDEAL LOADS AIR SYSTEM 47,GUESTROOM402_405 ZN,1,1
 Zone Equipment List,48,GUESTROOM406_408 ZN EQUIPMENT LIST,GUESTROOM406_408 ZN,1
   Zone Equipment Component,1,ZONEHVAC:IDEALLOADSAIRSYSTEM,ZONE HVAC IDEAL LOADS AIR SYSTEM 48,GUESTROOM406_408 ZN,1,1
 Zone Equipment List,49,GUESTROOM409_412 ZN EQUIPMENT LIST,GUESTROOM409_412 ZN,1
   Zone Equipment Component,1,ZONEHVAC:IDEALLOADSAIRSYSTEM,ZONE HVAC IDEAL LOADS AIR SYSTEM 49,GUESTROOM409_412 ZN,1,1
 Zone Equipment List,50,GUESTROOM413 ZN EQUIPMENT LIST,GUESTROOM413 ZN,1
   Zone Equipment Component,1,ZONEHVAC:IDEALLOADSAIRSYSTEM,ZONE HVAC IDEAL LOADS AIR SYSTEM 50,GUESTROOM413 ZN,1,1
 Zone Equipment List,51,GUESTROOM414 ZN EQUIPMENT LIST,GUESTROOM414 ZN,1
   Zone Equipment Component,1,ZONEHVAC:IDEALLOADSAIRSYSTEM,ZONE HVAC IDEAL LOADS AIR SYSTEM 51,GUESTROOM414 ZN,1,1
 Zone Equipment List,52,GUESTROOM415_418 ZN EQUIPMENT LIST,GUESTROOM415_418 ZN,1
   Zone Equipment Component,1,ZONEHVAC:IDEALLOADSAIRSYSTEM,ZONE HVAC IDEAL LOADS AIR SYSTEM 52,GUESTROOM415_418 ZN,1,1
 Zone Equipment List,53,GUESTROOM419 ZN EQUIPMENT LIST,GUESTROOM419 ZN,1
   Zone Equipment Component,1,ZONEHVAC:IDEALLOADSAIRSYSTEM,ZONE HVAC IDEAL LOADS AIR SYSTEM 53,GUESTROOM419 ZN,1,1
 Zone Equipment List,54,GUESTROOM420_423 ZN EQUIPMENT LIST,GUESTROOM420_423 ZN,1
   Zone Equipment Component,1,ZONEHVAC:IDEALLOADSAIRSYSTEM,ZONE HVAC IDEAL LOADS AIR SYSTEM 54,GUESTROOM420_423 ZN,1,1
 Zone Equipment List,55,GUESTROOM424 ZN EQUIPMENT LIST,GUESTROOM424 ZN,1
   Zone Equipment Component,1,ZONEHVAC:IDEALLOADSAIRSYSTEM,ZONE HVAC IDEAL LOADS AIR SYSTEM 55,GUESTROOM424 ZN,1,1
 Zone Equipment List,56,LAUNDRYROOMFLR1 ZN EQUIPMENT LIST,LAUNDRYROOMFLR1 ZN,1
   Zone Equipment Component,1,ZONEHVAC:IDEALLOADSAIRSYSTEM,ZONE HVAC IDEAL LOADS AIR SYSTEM 56,LAUNDRYROOMFLR1 ZN,1,1
 Zone Equipment List,57,MECHANICALROOMFLR1 ZN EQUIPMENT LIST,MECHANICALROOMFLR1 ZN,1
   Zone Equipment Component,1,ZONEHVAC:IDEALLOADSAIRSYSTEM,ZONE HVAC IDEAL LOADS AIR SYSTEM 57,MECHANICALROOMFLR1 ZN,1,1
 Zone Equipment List,58,MEETINGROOMFLR1 ZN EQUIPMENT LIST,MEETINGROOMFLR1 ZN,1
   Zone Equipment Component,1,ZONEHVAC:IDEALLOADSAIRSYSTEM,ZONE HVAC IDEAL LOADS AIR SYSTEM 58,MEETINGROOMFLR1 ZN,1,1
 Zone Equipment List,59,REARSTAIRSFLR1 ZN EQUIPMENT LIST,REARSTAIRSFLR1 ZN,1
   Zone Equipment Component,1,ZONEHVAC:IDEALLOADSAIRSYSTEM,ZONE HVAC IDEAL LOADS AIR SYSTEM 59,REARSTAIRSFLR1 ZN,1,1
 Zone Equipment List,60,REARSTAIRSFLR2 ZN EQUIPMENT LIST,REARSTAIRSFLR2 ZN,1
   Zone Equipment Component,1,ZONEHVAC:IDEALLOADSAIRSYSTEM,ZONE HVAC IDEAL LOADS AIR SYSTEM 60,REARSTAIRSFLR2 ZN,1,1
 Zone Equipment List,61,REARSTAIRSFLR3 ZN EQUIPMENT LIST,REARSTAIRSFLR3 ZN,1
   Zone Equipment Component,1,ZONEHVAC:IDEALLOADSAIRSYSTEM,ZONE HVAC IDEAL LOADS AIR SYSTEM 61,REARSTAIRSFLR3 ZN,1,1
 Zone Equipment List,62,REARSTAIRSFLR4 ZN EQUIPMENT LIST,REARSTAIRSFLR4 ZN,1
   Zone Equipment Component,1,ZONEHVAC:IDEALLOADSAIRSYSTEM,ZONE HVAC IDEAL LOADS AIR SYSTEM 62,REARSTAIRSFLR4 ZN,1,1
 Zone Equipment List,63,REARSTORAGEFLR1 ZN EQUIPMENT LIST,REARSTORAGEFLR1 ZN,1
   Zone Equipment Component,1,ZONEHVAC:IDEALLOADSAIRSYSTEM,ZONE HVAC IDEAL LOADS AIR SYSTEM 63,REARSTORAGEFLR1 ZN,1,1
 Zone Equipment List,64,REARSTORAGEFLR2 ZN EQUIPMENT LIST,REARSTORAGEFLR2 ZN,1
   Zone Equipment Component,1,ZONEHVAC:IDEALLOADSAIRSYSTEM,ZONE HVAC IDEAL LOADS AIR SYSTEM 64,REARSTORAGEFLR2 ZN,1,1
 Zone Equipment List,65,REARSTORAGEFLR3 ZN EQUIPMENT LIST,REARSTORAGEFLR3 ZN,1
   Zone Equipment Component,1,ZONEHVAC:IDEALLOADSAIRSYSTEM,ZONE HVAC IDEAL LOADS AIR SYSTEM 65,REARSTORAGEFLR3 ZN,1,1
 Zone Equipment List,66,REARSTORAGEFLR4 ZN EQUIPMENT LIST,REARSTORAGEFLR4 ZN,1
   Zone Equipment Component,1,ZONEHVAC:IDEALLOADSAIRSYSTEM,ZONE HVAC IDEAL LOADS AIR SYSTEM 66,REARSTORAGEFLR4 ZN,1,1
 Zone Equipment List,67,RESTROOMFLR1 ZN EQUIPMENT LIST,RESTROOMFLR1 ZN,1
   Zone Equipment Component,1,ZONEHVAC:IDEALLOADSAIRSYSTEM,ZONE HVAC IDEAL LOADS AIR SYSTEM 67,RESTROOMFLR1 ZN,1,1
! ===============================================================
! <#AirLoopHVACs>,<Number of AirLoopHVACs>
 #AirLoopHVACs,0
! <AirLoopHVAC>,<Air Loop Name>,<# Return Nodes>,<# Supply Nodes>,<# Zones Cooled>,<# Zones Heated>,<Outdoor Air Used>
! <AirLoop Return Connections>,<Connection Count>,<AirLoopHVAC Name>,<Zn Eqp Return Node #>,<Zn Eqp Return Node Name>,<AirLoop Return Node #>,<Air Loop Return Node Name>
! <AirLoop Supply Connections>,<Connection Count>,<AirLoopHVAC Name>,<Zn Eqp Supply Node #>,<Zn Eqp Supply Node Name>,<AirLoop Supply Node #>,<Air Loop Supply Node Name>
! <Cooled Zone Info>,<Cooled Zone Count>,<Cooled Zone Name>,<Cooled Zone Inlet Node #>,<Cooled Zone Inlet Node Name>,<AirLoopHVAC Name>
! <Heated Zone Info>,<Heated Zone Count>,<Heated Zone Name>,<Heated Zone Inlet Node #>,<Heated Zone Inlet Node Name>,<AirLoopHVAC Name>
! <Outdoor Air Connections>,<OA Inlet Node #>,<OA Return Air Inlet Node Name>,<OA Outlet Node #>,<OA Mixed Air Outlet Node Name>,<AirLoopHVAC Name>
! <AirLoopHVAC Connector>,<Connector Type>,<Connector Name>,<Loop Name>,<Loop Type>,<Number of Inlets/Outlets>
! <AirLoopHVAC Connector Branches>,<Connector Node Count>,<Connector Type>,<Connector Name>,<Inlet Branch>,<Outlet Branch>,<Loop Name>,<Loop Type>
! <AirLoopHVAC Connector Nodes>,<Connector Node Count>,<Connector Type>,<Connector Name>,<Inlet Node>,<Outlet Node>,<Loop Name>,<Loop Type>
! ===============================================================
! <#Parent Node Connections>,<Number of Parent Node Connections>
 #Parent Node Connections,0
! <Parent Node Connection>,<Node Name>,<Node ObjectType>,<Node ObjectName>,<Node ConnectionType>,<Node FluidStream>
! ===============================================================
! <#Non-Parent Node Connections>,<Number of Non-Parent Node Connections>
 #Non-Parent Node Connections,537
! <Non-Parent Node Connection>,<Node Name>,<Node ObjectType>,<Node ObjectName>,<Node ConnectionType>,<Node FluidStream>
 Non-Parent Node Connection,NODE 1,ZONEHVAC:EQUIPMENTCONNECTIONS,CORRIDORFLR1 ZN,ZoneNode,1
 Non-Parent Node Connection,NODE 3,ZONEHVAC:EQUIPMENTCONNECTIONS,CORRIDORFLR1 ZN,ZoneInlet,1
 Non-Parent Node Connection,NODE 2,ZONEHVAC:EQUIPMENTCONNECTIONS,CORRIDORFLR1 ZN,ZoneExhaust,1
 Non-Parent Node Connection,CORRIDORFLR1 ZN RETURN AIR NODE,ZONEHVAC:EQUIPMENTCONNECTIONS,CORRIDORFLR1 ZN,ZoneReturn,1
 Non-Parent Node Connection,NODE 4,ZONEHVAC:EQUIPMENTCONNECTIONS,CORRIDORFLR2 ZN,ZoneNode,1
 Non-Parent Node Connection,NODE 6,ZONEHVAC:EQUIPMENTCONNECTIONS,CORRIDORFLR2 ZN,ZoneInlet,1
 Non-Parent Node Connection,NODE 5,ZONEHVAC:EQUIPMENTCONNECTIONS,CORRIDORFLR2 ZN,ZoneExhaust,1
 Non-Parent Node Connection,CORRIDORFLR2 ZN RETURN AIR NODE,ZONEHVAC:EQUIPMENTCONNECTIONS,CORRIDORFLR2 ZN,ZoneReturn,1
 Non-Parent Node Connection,NODE 7,ZONEHVAC:EQUIPMENTCONNECTIONS,CORRIDORFLR3 ZN,ZoneNode,1
 Non-Parent Node Connection,NODE 9,ZONEHVAC:EQUIPMENTCONNECTIONS,CORRIDORFLR3 ZN,ZoneInlet,1
 Non-Parent Node Connection,NODE 8,ZONEHVAC:EQUIPMENTCONNECTIONS,CORRIDORFLR3 ZN,ZoneExhaust,1
 Non-Parent Node Connection,CORRIDORFLR3 ZN RETURN AIR NODE,ZONEHVAC:EQUIPMENTCONNECTIONS,CORRIDORFLR3 ZN,ZoneReturn,1
 Non-Parent Node Connection,NODE 10,ZONEHVAC:EQUIPMENTCONNECTIONS,CORRIDORFLR4 ZN,ZoneNode,1
 Non-Parent Node Connection,NODE 12,ZONEHVAC:EQUIPMENTCONNECTIONS,CORRIDORFLR4 ZN,ZoneInlet,1
 Non-Parent Node Connection,NODE 11,ZONEHVAC:EQUIPMENTCONNECTIONS,CORRIDORFLR4 ZN,ZoneExhaust,1
 Non-Parent Node Connection,CORRIDORFLR4 ZN RETURN AIR NODE,ZONEHVAC:EQUIPMENTCONNECTIONS,CORRIDORFLR4 ZN,ZoneReturn,1
 Non-Parent Node Connection,NODE 13,ZONEHVAC:EQUIPMENTCONNECTIONS,ELEVATORCOREFLR1 ZN,ZoneNode,1
 Non-Parent Node Connection,NODE 15,ZONEHVAC:EQUIPMENTCONNECTIONS,ELEVATORCOREFLR1 ZN,ZoneInlet,1
 Non-Parent Node Connection,NODE 14,ZONEHVAC:EQUIPMENTCONNECTIONS,ELEVATORCOREFLR1 ZN,ZoneExhaust,1
 Non-Parent Node Connection,ELEVATORCOREFLR1 ZN RETURN AIR NODE,ZONEHVAC:EQUIPMENTCONNECTIONS,ELEVATORCOREFLR1 ZN,ZoneReturn,1
 Non-Parent Node Connection,NODE 16,ZONEHVAC:EQUIPMENTCONNECTIONS,ELEVATORCOREFLR2 ZN,ZoneNode,1
 Non-Parent Node Connection,NODE 18,ZONEHVAC:EQUIPMENTCONNECTIONS,ELEVATORCOREFLR2 ZN,ZoneInlet,1
 Non-Parent Node Connection,NODE 17,ZONEHVAC:EQUIPMENTCONNECTIONS,ELEVATORCOREFLR2 ZN,ZoneExhaust,1
 Non-Parent Node Connection,ELEVATORCOREFLR2 ZN RETURN AIR NODE,ZONEHVAC:EQUIPMENTCONNECTIONS,ELEVATORCOREFLR2 ZN,ZoneReturn,1
 Non-Parent Node Connection,NODE 19,ZONEHVAC:EQUIPMENTCONNECTIONS,ELEVATORCOREFLR3 ZN,ZoneNode,1
 Non-Parent Node Connection,NODE 21,ZONEHVAC:EQUIPMENTCONNECTIONS,ELEVATORCOREFLR3 ZN,ZoneInlet,1
 Non-Parent Node Connection,NODE 20,ZONEHVAC:EQUIPMENTCONNECTIONS,ELEVATORCOREFLR3 ZN,ZoneExhaust,1
 Non-Parent Node Connection,ELEVATORCOREFLR3 ZN RETURN AIR NODE,ZONEHVAC:EQUIPMENTCONNECTIONS,ELEVATORCOREFLR3 ZN,ZoneReturn,1
 Non-Parent Node Connection,NODE 22,ZONEHVAC:EQUIPMENTCONNECTIONS,ELEVATORCOREFLR4 ZN,ZoneNode,1
 Non-Parent Node Connection,NODE 24,ZONEHVAC:EQUIPMENTCONNECTIONS,ELEVATORCOREFLR4 ZN,ZoneInlet,1
 Non-Parent Node Connection,NODE 23,ZONEHVAC:EQUIPMENTCONNECTIONS,ELEVATORCOREFLR4 ZN,ZoneExhaust,1
 Non-Parent Node Connection,ELEVATORCOREFLR4 ZN RETURN AIR NODE,ZONEHVAC:EQUIPMENTCONNECTIONS,ELEVATORCOREFLR4 ZN,ZoneReturn,1
 Non-Parent Node Connection,NODE 25,ZONEHVAC:EQUIPMENTCONNECTIONS,EMPLOYEELOUNGEFLR1 ZN,ZoneNode,1
 Non-Parent Node Connection,NODE 27,ZONEHVAC:EQUIPMENTCONNECTIONS,EMPLOYEELOUNGEFLR1 ZN,ZoneInlet,1
 Non-Parent Node Connection,NODE 26,ZONEHVAC:EQUIPMENTCONNECTIONS,EMPLOYEELOUNGEFLR1 ZN,ZoneExhaust,1
 Non-Parent Node Connection,EMPLOYEELOUNGEFLR1 ZN RETURN AIR NODE,ZONEHVAC:EQUIPMENTCONNECTIONS,EMPLOYEELOUNGEFLR1 ZN,ZoneReturn,1
 Non-Parent Node Connection,NODE 28,ZONEHVAC:EQUIPMENTCONNECTIONS,EXERCISECENTERFLR1 ZN,ZoneNode,1
 Non-Parent Node Connection,NODE 30,ZONEHVAC:EQUIPMENTCONNECTIONS,EXERCISECENTERFLR1 ZN,ZoneInlet,1
 Non-Parent Node Connection,NODE 29,ZONEHVAC:EQUIPMENTCONNECTIONS,EXERCISECENTERFLR1 ZN,ZoneExhaust,1
 Non-Parent Node Connection,EXERCISECENTERFLR1 ZN RETURN AIR NODE,ZONEHVAC:EQUIPMENTCONNECTIONS,EXERCISECENTERFLR1 ZN,ZoneReturn,1
 Non-Parent Node Connection,NODE 31,ZONEHVAC:EQUIPMENTCONNECTIONS,FRONTLOUNGEFLR1 ZN,ZoneNode,1
 Non-Parent Node Connection,NODE 33,ZONEHVAC:EQUIPMENTCONNECTIONS,FRONTLOUNGEFLR1 ZN,ZoneInlet,1
 Non-Parent Node Connection,NODE 32,ZONEHVAC:EQUIPMENTCONNECTIONS,FRONTLOUNGEFLR1 ZN,ZoneExhaust,1
 Non-Parent Node Connection,FRONTLOUNGEFLR1 ZN RETURN AIR NODE,ZONEHVAC:EQUIPMENTCONNECTIONS,FRONTLOUNGEFLR1 ZN,ZoneReturn,1
 Non-Parent Node Connection,NODE 34,ZONEHVAC:EQUIPMENTCONNECTIONS,FRONTOFFICEFLR1 ZN,ZoneNode,1
 Non-Parent Node Connection,NODE 36,ZONEHVAC:EQUIPMENTCONNECTIONS,FRONTOFFICEFLR1 ZN,ZoneInlet,1
 Non-Parent Node Connection,NODE 35,ZONEHVAC:EQUIPMENTCONNECTIONS,FRONTOFFICEFLR1 ZN,ZoneExhaust,1
 Non-Parent Node Connection,FRONTOFFICEFLR1 ZN RETURN AIR NODE,ZONEHVAC:EQUIPMENTCONNECTIONS,FRONTOFFICEFLR1 ZN,ZoneReturn,1
 Non-Parent Node Connection,NODE 37,ZONEHVAC:EQUIPMENTCONNECTIONS,FRONTSTAIRSFLR1 ZN,ZoneNode,1
 Non-Parent Node Connection,NODE 39,ZONEHVAC:EQUIPMENTCONNECTIONS,FRONTSTAIRSFLR1 ZN,ZoneInlet,1
 Non-Parent Node Connection,NODE 38,ZONEHVAC:EQUIPMENTCONNECTIONS,FRONTSTAIRSFLR1 ZN,ZoneExhaust,1
 Non-Parent Node Connection,FRONTSTAIRSFLR1 ZN RETURN AIR NODE,ZONEHVAC:EQUIPMENTCONNECTIONS,FRONTSTAIRSFLR1 ZN,ZoneReturn,1
 Non-Parent Node Connection,NODE 40,ZONEHVAC:EQUIPMENTCONNECTIONS,FRONTSTAIRSFLR2 ZN,ZoneNode,1
 Non-Parent Node Connection,NODE 42,ZONEHVAC:EQUIPMENTCONNECTIONS,FRONTSTAIRSFLR2 ZN,ZoneInlet,1
 Non-Parent Node Connection,NODE 41,ZONEHVAC:EQUIPMENTCONNECTIONS,FRONTSTAIRSFLR2 ZN,ZoneExhaust,1
 Non-Parent Node Connection,FRONTSTAIRSFLR2 ZN RETURN AIR NODE,ZONEHVAC:EQUIPMENTCONNECTIONS,FRONTSTAIRSFLR2 ZN,ZoneReturn,1
 Non-Parent Node Connection,NODE 43,ZONEHVAC:EQUIPMENTCONNECTIONS,FRONTSTAIRSFLR3 ZN,ZoneNode,1
 Non-Parent Node Connection,NODE 45,ZONEHVAC:EQUIPMENTCONNECTIONS,FRONTSTAIRSFLR3 ZN,ZoneInlet,1
 Non-Parent Node Connection,NODE 44,ZONEHVAC:EQUIPMENTCONNECTIONS,FRONTSTAIRSFLR3 ZN,ZoneExhaust,1
 Non-Parent Node Connection,FRONTSTAIRSFLR3 ZN RETURN AIR NODE,ZONEHVAC:EQUIPMENTCONNECTIONS,FRONTSTAIRSFLR3 ZN,ZoneReturn,1
 Non-Parent Node Connection,NODE 46,ZONEHVAC:EQUIPMENTCONNECTIONS,FRONTSTAIRSFLR4 ZN,ZoneNode,1
 Non-Parent Node Connection,NODE 48,ZONEHVAC:EQUIPMENTCONNECTIONS,FRONTSTAIRSFLR4 ZN,ZoneInlet,1
 Non-Parent Node Connection,NODE 47,ZONEHVAC:EQUIPMENTCONNECTIONS,FRONTSTAIRSFLR4 ZN,ZoneExhaust,1
 Non-Parent Node Connection,FRONTSTAIRSFLR4 ZN RETURN AIR NODE,ZONEHVAC:EQUIPMENTCONNECTIONS,FRONTSTAIRSFLR4 ZN,ZoneReturn,1
 Non-Parent Node Connection,NODE 49,ZONEHVAC:EQUIPMENTCONNECTIONS,FRONTSTORAGEFLR1 ZN,ZoneNode,1
 Non-Parent Node Connection,NODE 51,ZONEHVAC:EQUIPMENTCONNECTIONS,FRONTSTORAGEFLR1 ZN,ZoneInlet,1
 Non-Parent Node Connection,NODE 50,ZONEHVAC:EQUIPMENTCONNECTIONS,FRONTSTORAGEFLR1 ZN,ZoneExhaust,1
 Non-Parent Node Connection,FRONTSTORAGEFLR1 ZN RETURN AIR NODE,ZONEHVAC:EQUIPMENTCONNECTIONS,FRONTSTORAGEFLR1 ZN,ZoneReturn,1
 Non-Parent Node Connection,NODE 52,ZONEHVAC:EQUIPMENTCONNECTIONS,FRONTSTORAGEFLR2 ZN,ZoneNode,1
 Non-Parent Node Connection,NODE 54,ZONEHVAC:EQUIPMENTCONNECTIONS,FRONTSTORAGEFLR2 ZN,ZoneInlet,1
 Non-Parent Node Connection,NODE 53,ZONEHVAC:EQUIPMENTCONNECTIONS,FRONTSTORAGEFLR2 ZN,ZoneExhaust,1
 Non-Parent Node Connection,FRONTSTORAGEFLR2 ZN RETURN AIR NODE,ZONEHVAC:EQUIPMENTCONNECTIONS,FRONTSTORAGEFLR2 ZN,ZoneReturn,1
 Non-Parent Node Connection,NODE 55,ZONEHVAC:EQUIPMENTCONNECTIONS,FRONTSTORAGEFLR3 ZN,ZoneNode,1
 Non-Parent Node Connection,NODE 57,ZONEHVAC:EQUIPMENTCONNECTIONS,FRONTSTORAGEFLR3 ZN,ZoneInlet,1
 Non-Parent Node Connection,NODE 56,ZONEHVAC:EQUIPMENTCONNECTIONS,FRONTSTORAGEFLR3 ZN,ZoneExhaust,1
 Non-Parent Node Connection,FRONTSTORAGEFLR3 ZN RETURN AIR NODE,ZONEHVAC:EQUIPMENTCONNECTIONS,FRONTSTORAGEFLR3 ZN,ZoneReturn,1
 Non-Parent Node Connection,NODE 58,ZONEHVAC:EQUIPMENTCONNECTIONS,FRONTSTORAGEFLR4 ZN,ZoneNode,1
 Non-Parent Node Connection,NODE 60,ZONEHVAC:EQUIPMENTCONNECTIONS,FRONTSTORAGEFLR4 ZN,ZoneInlet,1
 Non-Parent Node Connection,NODE 59,ZONEHVAC:EQUIPMENTCONNECTIONS,FRONTSTORAGEFLR4 ZN,ZoneExhaust,1
 Non-Parent Node Connection,FRONTSTORAGEFLR4 ZN RETURN AIR NODE,ZONEHVAC:EQUIPMENTCONNECTIONS,FRONTSTORAGEFLR4 ZN,ZoneReturn,1
 Non-Parent Node Connection,NODE 61,ZONEHVAC:EQUIPMENTCONNECTIONS,GUESTROOM101 ZN,ZoneNode,1
 Non-Parent Node Connection,NODE 63,ZONEHVAC:EQUIPMENTCONNECTIONS,GUESTROOM101 ZN,ZoneInlet,1
 Non-Parent Node Connection,NODE 62,ZONEHVAC:EQUIPMENTCONNECTIONS,GUESTROOM101 ZN,ZoneExhaust,1
 Non-Parent Node Connection,GUESTROOM101 ZN RETURN AIR NODE,ZONEHVAC:EQUIPMENTCONNECTIONS,GUESTROOM101 ZN,ZoneReturn,1
 Non-Parent Node Connection,NODE 64,ZONEHVAC:EQUIPMENTCONNECTIONS,GUESTROOM102 ZN,ZoneNode,1
 Non-Parent Node Connection,NODE 66,ZONEHVAC:EQUIPMENTCONNECTIONS,GUESTROOM102 ZN,ZoneInlet,1
 Non-Parent Node Connection,NODE 65,ZONEHVAC:EQUIPMENTCONNECTIONS,GUESTROOM102 ZN,ZoneExhaust,1
 Non-Parent Node Connection,GUESTROOM102 ZN RETURN AIR NODE,ZONEHVAC:EQUIPMENTCONNECTIONS,GUESTROOM102 ZN,ZoneReturn,1
 Non-Parent Node Connection,NODE 67,ZONEHVAC:EQUIPMENTCONNECTIONS,GUESTROOM103 ZN,ZoneNode,1
 Non-Parent Node Connection,NODE 69,ZONEHVAC:EQUIPMENTCONNECTIONS,GUESTROOM103 ZN,ZoneInlet,1
 Non-Parent Node Connection,NODE 68,ZONEHVAC:EQUIPMENTCONNECTIONS,GUESTROOM103 ZN,ZoneExhaust,1
 Non-Parent Node Connection,GUESTROOM103 ZN RETURN AIR NODE,ZONEHVAC:EQUIPMENTCONNECTIONS,GUESTROOM103 ZN,ZoneReturn,1
 Non-Parent Node Connection,NODE 70,ZONEHVAC:EQUIPMENTCONNECTIONS,GUESTROOM104 ZN,ZoneNode,1
 Non-Parent Node Connection,NODE 72,ZONEHVAC:EQUIPMENTCONNECTIONS,GUESTROOM104 ZN,ZoneInlet,1
 Non-Parent Node Connection,NODE 71,ZONEHVAC:EQUIPMENTCONNECTIONS,GUESTROOM104 ZN,ZoneExhaust,1
 Non-Parent Node Connection,GUESTROOM104 ZN RETURN AIR NODE,ZONEHVAC:EQUIPMENTCONNECTIONS,GUESTROOM104 ZN,ZoneReturn,1
 Non-Parent Node Connection,NODE 73,ZONEHVAC:EQUIPMENTCONNECTIONS,GUESTROOM105 ZN,ZoneNode,1
 Non-Parent Node Connection,NODE 75,ZONEHVAC:EQUIPMENTCONNECTIONS,GUESTROOM105 ZN,ZoneInlet,1
 Non-Parent Node Connection,NODE 74,ZONEHVAC:EQUIPMENTCONNECTIONS,GUESTROOM105 ZN,ZoneExhaust,1
 Non-Parent Node Connection,GUESTROOM105 ZN RETURN AIR NODE,ZONEHVAC:EQUIPMENTCONNECTIONS,GUESTROOM105 ZN,ZoneReturn,1
 Non-Parent Node Connection,NODE 76,ZONEHVAC:EQUIPMENTCONNECTIONS,GUESTROOM201 ZN,ZoneNode,1
 Non-Parent Node Connection,NODE 78,ZONEHVAC:EQUIPMENTCONNECTIONS,GUESTROOM201 ZN,ZoneInlet,1
 Non-Parent Node Connection,NODE 77,ZONEHVAC:EQUIPMENTCONNECTIONS,GUESTROOM201 ZN,ZoneExhaust,1
 Non-Parent Node Connection,GUESTROOM201 ZN RETURN AIR NODE,ZONEHVAC:EQUIPMENTCONNECTIONS,GUESTROOM201 ZN,ZoneReturn,1
 Non-Parent Node Connection,NODE 79,ZONEHVAC:EQUIPMENTCONNECTIONS,GUESTROOM202_205 ZN,ZoneNode,1
 Non-Parent Node Connection,NODE 81,ZONEHVAC:EQUIPMENTCONNECTIONS,GUESTROOM202_205 ZN,ZoneInlet,1
 Non-Parent Node Connection,NODE 80,ZONEHVAC:EQUIPMENTCONNECTIONS,GUESTROOM202_205 ZN,ZoneExhaust,1
 Non-Parent Node Connection,GUESTROOM202_205 ZN RETURN AIR NODE,ZONEHVAC:EQUIPMENTCONNECTIONS,GUESTROOM202_205 ZN,ZoneReturn,1
 Non-Parent Node Connection,NODE 82,ZONEHVAC:EQUIPMENTCONNECTIONS,GUESTROOM206_208 ZN,ZoneNode,1
 Non-Parent Node Connection,NODE 84,ZONEHVAC:EQUIPMENTCONNECTIONS,GUESTROOM206_208 ZN,ZoneInlet,1
 Non-Parent Node Connection,NODE 83,ZONEHVAC:EQUIPMENTCONNECTIONS,GUESTROOM206_208 ZN,ZoneExhaust,1
 Non-Parent Node Connection,GUESTROOM206_208 ZN RETURN AIR NODE,ZONEHVAC:EQUIPMENTCONNECTIONS,GUESTROOM206_208 ZN,ZoneReturn,1
 Non-Parent Node Connection,NODE 85,ZONEHVAC:EQUIPMENTCONNECTIONS,GUESTROOM209_212 ZN,ZoneNode,1
 Non-Parent Node Connection,NODE 87,ZONEHVAC:EQUIPMENTCONNECTIONS,GUESTROOM209_212 ZN,ZoneInlet,1
 Non-Parent Node Connection,NODE 86,ZONEHVAC:EQUIPMENTCONNECTIONS,GUESTROOM209_212 ZN,ZoneExhaust,1
 Non-Parent Node Connection,GUESTROOM209_212 ZN RETURN AIR NODE,ZONEHVAC:EQUIPMENTCONNECTIONS,GUESTROOM209_212 ZN,ZoneReturn,1
 Non-Parent Node Connection,NODE 88,ZONEHVAC:EQUIPMENTCONNECTIONS,GUESTROOM213 ZN,ZoneNode,1
 Non-Parent Node Connection,NODE 90,ZONEHVAC:EQUIPMENTCONNECTIONS,GUESTROOM213 ZN,ZoneInlet,1
 Non-Parent Node Connection,NODE 89,ZONEHVAC:EQUIPMENTCONNECTIONS,GUESTROOM213 ZN,ZoneExhaust,1
 Non-Parent Node Connection,GUESTROOM213 ZN RETURN AIR NODE,ZONEHVAC:EQUIPMENTCONNECTIONS,GUESTROOM213 ZN,ZoneReturn,1
 Non-Parent Node Connection,NODE 91,ZONEHVAC:EQUIPMENTCONNECTIONS,GUESTROOM214 ZN,ZoneNode,1
 Non-Parent Node Connection,NODE 93,ZONEHVAC:EQUIPMENTCONNECTIONS,GUESTROOM214 ZN,ZoneInlet,1
 Non-Parent Node Connection,NODE 92,ZONEHVAC:EQUIPMENTCONNECTIONS,GUESTROOM214 ZN,ZoneExhaust,1
 Non-Parent Node Connection,GUESTROOM214 ZN RETURN AIR NODE,ZONEHVAC:EQUIPMENTCONNECTIONS,GUESTROOM214 ZN,ZoneReturn,1
 Non-Parent Node Connection,NODE 94,ZONEHVAC:EQUIPMENTCONNECTIONS,GUESTROOM215_218 ZN,ZoneNode,1
 Non-Parent Node Connection,NODE 96,ZONEHVAC:EQUIPMENTCONNECTIONS,GUESTROOM215_218 ZN,ZoneInlet,1
 Non-Parent Node Connection,NODE 95,ZONEHVAC:EQUIPMENTCONNECTIONS,GUESTROOM215_218 ZN,ZoneExhaust,1
 Non-Parent Node Connection,GUESTROOM215_218 ZN RETURN AIR NODE,ZONEHVAC:EQUIPMENTCONNECTIONS,GUESTROOM215_218 ZN,ZoneReturn,1
 Non-Parent Node Connection,NODE 97,ZONEHVAC:EQUIPMENTCONNECTIONS,GUESTROOM219 ZN,ZoneNode,1
 Non-Parent Node Connection,NODE 99,ZONEHVAC:EQUIPMENTCONNECTIONS,GUESTROOM219 ZN,ZoneInlet,1
 Non-Parent Node Connection,NODE 98,ZONEHVAC:EQUIPMENTCONNECTIONS,GUESTROOM219 ZN,ZoneExhaust,1
 Non-Parent Node Connection,GUESTROOM219 ZN RETURN AIR NODE,ZONEHVAC:EQUIPMENTCONNECTIONS,GUESTROOM219 ZN,ZoneReturn,1
 Non-Parent Node Connection,NODE 100,ZONEHVAC:EQUIPMENTCONNECTIONS,GUESTROOM220_223 ZN,ZoneNode,1
 Non-Parent Node Connection,NODE 102,ZONEHVAC:EQUIPMENTCONNECTIONS,GUESTROOM220_223 ZN,ZoneInlet,1
 Non-Parent Node Connection,NODE 101,ZONEHVAC:EQUIPMENTCONNECTIONS,GUESTROOM220_223 ZN,ZoneExhaust,1
 Non-Parent Node Connection,GUESTROOM220_223 ZN RETURN AIR NODE,ZONEHVAC:EQUIPMENTCONNECTIONS,GUESTROOM220_223 ZN,ZoneReturn,1
 Non-Parent Node Connection,NODE 103,ZONEHVAC:EQUIPMENTCONNECTIONS,GUESTROOM224 ZN,ZoneNode,1
 Non-Parent Node Connection,NODE 105,ZONEHVAC:EQUIPMENTCONNECTIONS,GUESTROOM224 ZN,ZoneInlet,1
 Non-Parent Node Connection,NODE 104,ZONEHVAC:EQUIPMENTCONNECTIONS,GUESTROOM224 ZN,ZoneExhaust,1
 Non-Parent Node Connection,GUESTROOM224 ZN RETURN AIR NODE,ZONEHVAC:EQUIPMENTCONNECTIONS,GUESTROOM224 ZN,ZoneReturn,1
 Non-Parent Node Connection,NODE 106,ZONEHVAC:EQUIPMENTCONNECTIONS,GUESTROOM301 ZN,ZoneNode,1
 Non-Parent Node Connection,NODE 108,ZONEHVAC:EQUIPMENTCONNECTIONS,GUESTROOM301 ZN,ZoneInlet,1
 Non-Parent Node Connection,NODE 107,ZONEHVAC:EQUIPMENTCONNECTIONS,GUESTROOM301 ZN,ZoneExhaust,1
[...]
 Non-Parent Node Connection,NODE 86,ZONEHVAC:IDEALLOADSAIRSYSTEM,ZONE HVAC IDEAL LOADS AIR SYSTEM 29,Inlet,1
 Non-Parent Node Connection,ZONE HVAC IDEAL LOADS AIR SYSTEM 29 OUTDOOR AIR INLET NODE,ZONEHVAC:IDEALLOADSAIRSYSTEM,ZONE HVAC IDEAL LOADS AIR SYSTEM 29,Outlet,1
 Non-Parent Node Connection,ZONE HVAC IDEAL LOADS AIR SYSTEM 29 OUTDOOR AIR INLET NODE,OUTDOORAIR:NODE,OutdoorAir:Node,OutdoorAir,30
 Non-Parent Node Connection,NODE 90,ZONEHVAC:IDEALLOADSAIRSYSTEM,ZONE HVAC IDEAL LOADS AIR SYSTEM 30,Outlet,1
 Non-Parent Node Connection,NODE 89,ZONEHVAC:IDEALLOADSAIRSYSTEM,ZONE HVAC IDEAL LOADS AIR SYSTEM 30,Inlet,1
 Non-Parent Node Connection,ZONE HVAC IDEAL LOADS AIR SYSTEM 30 OUTDOOR AIR INLET NODE,ZONEHVAC:IDEALLOADSAIRSYSTEM,ZONE HVAC IDEAL LOADS AIR SYSTEM 30,Outlet,1
 Non-Parent Node Connection,ZONE HVAC IDEAL LOADS AIR SYSTEM 30 OUTDOOR AIR INLET NODE,OUTDOORAIR:NODE,OutdoorAir:Node,OutdoorAir,31
 Non-Parent Node Connection,NODE 93,ZONEHVAC:IDEALLOADSAIRSYSTEM,ZONE HVAC IDEAL LOADS AIR SYSTEM 31,Outlet,1
 Non-Parent Node Connection,NODE 92,ZONEHVAC:IDEALLOADSAIRSYSTEM,ZONE HVAC IDEAL LOADS AIR SYSTEM 31,Inlet,1
 Non-Parent Node Connection,ZONE HVAC IDEAL LOADS AIR SYSTEM 31 OUTDOOR AIR INLET NODE,ZONEHVAC:IDEALLOADSAIRSYSTEM,ZONE HVAC IDEAL LOADS AIR SYSTEM 31,Outlet,1
 Non-Parent Node Connection,ZONE HVAC IDEAL LOADS AIR SYSTEM 31 OUTDOOR AIR INLET NODE,OUTDOORAIR:NODE,OutdoorAir:Node,OutdoorAir,32
 Non-Parent Node Connection,NODE 96,ZONEHVAC:IDEALLOADSAIRSYSTEM,ZONE HVAC IDEAL LOADS AIR SYSTEM 32,Outlet,1
 Non-Parent Node Connection,NODE 95,ZONEHVAC:IDEALLOADSAIRSYSTEM,ZONE HVAC IDEAL LOADS AIR SYSTEM 32,Inlet,1
 Non-Parent Node Connection,ZONE HVAC IDEAL LOADS AIR SYSTEM 32 OUTDOOR AIR INLET NODE,ZONEHVAC:IDEALLOADSAIRSYSTEM,ZONE HVAC IDEAL LOADS AIR SYSTEM 32,Outlet,1
 Non-Parent Node Connection,ZONE HVAC IDEAL LOADS AIR SYSTEM 32 OUTDOOR AIR INLET NODE,OUTDOORAIR:NODE,OutdoorAir:Node,OutdoorAir,33
 Non-Parent Node Connection,NODE 99,ZONEHVAC:IDEALLOADSAIRSYSTEM,ZONE HVAC IDEAL LOADS AIR SYSTEM 33,Outlet,1
 Non-Parent Node Connection,NODE 98,ZONEHVAC:IDEALLOADSAIRSYSTEM,ZONE HVAC IDEAL LOADS AIR SYSTEM 33,Inlet,1
 Non-Parent Node Connection,ZONE HVAC IDEAL LOADS AIR SYSTEM 33 OUTDOOR AIR INLET NODE,ZONEHVAC:IDEALLOADSAIRSYSTEM,ZONE HVAC IDEAL LOADS AIR SYSTEM 33,Outlet,1
 Non-Parent Node Connection,ZONE HVAC IDEAL LOADS AIR SYSTEM 33 OUTDOOR AIR INLET NODE,OUTDOORAIR:NODE,OutdoorAir:Node,OutdoorAir,34
 Non-Parent Node Connection,NODE 102,ZONEHVAC:IDEALLOADSAIRSYSTEM,ZONE HVAC IDEAL LOADS AIR SYSTEM 34,Outlet,1
 Non-Parent Node Connection,NODE 101,ZONEHVAC:IDEALLOADSAIRSYSTEM,ZONE HVAC IDEAL LOADS AIR SYSTEM 34,Inlet,1
 Non-Parent Node Connection,ZONE HVAC IDEAL LOADS AIR SYSTEM 34 OUTDOOR AIR INLET NODE,ZONEHVAC:IDEALLOADSAIRSYSTEM,ZONE HVAC IDEAL LOADS AIR SYSTEM 34,Outlet,1
 Non-Parent Node Connection,ZONE HVAC IDEAL LOADS AIR SYSTEM 34 OUTDOOR AIR INLET NODE,OUTDOORAIR:NODE,OutdoorAir:Node,OutdoorAir,35
 Non-Parent Node Connection,NODE 105,ZONEHVAC:IDEALLOADSAIRSYSTEM,ZONE HVAC IDEAL LOADS AIR SYSTEM 35,Outlet,1
 Non-Parent Node Connection,NODE 104,ZONEHVAC:IDEALLOADSAIRSYSTEM,ZONE HVAC IDEAL LOADS AIR SYSTEM 35,Inlet,1
 Non-Parent Node Connection,ZONE HVAC IDEAL LOADS AIR SYSTEM 35 OUTDOOR AIR INLET NODE,ZONEHVAC:IDEALLOADSAIRSYSTEM,ZONE HVAC IDEAL LOADS AIR SYSTEM 35,Outlet,1
 Non-Parent Node Connection,ZONE HVAC IDEAL LOADS AIR SYSTEM 35 OUTDOOR AIR INLET NODE,OUTDOORAIR:NODE,OutdoorAir:Node,OutdoorAir,36
 Non-Parent Node Connection,NODE 108,ZONEHVAC:IDEALLOADSAIRSYSTEM,ZONE HVAC IDEAL LOADS AIR SYSTEM 36,Outlet,1
 Non-Parent Node Connection,NODE 107,ZONEHVAC:IDEALLOADSAIRSYSTEM,ZONE HVAC IDEAL LOADS AIR SYSTEM 36,Inlet,1
 Non-Parent Node Connection,ZONE HVAC IDEAL LOADS AIR SYSTEM 36 OUTDOOR AIR INLET NODE,ZONEHVAC:IDEALLOADSAIRSYSTEM,ZONE HVAC IDEAL LOADS AIR SYSTEM 36,Outlet,1
 Non-Parent Node Connection,ZONE HVAC IDEAL LOADS AIR SYSTEM 36 OUTDOOR AIR INLET NODE,OUTDOORAIR:NODE,OutdoorAir:Node,OutdoorAir,37
 Non-Parent Node Connection,NODE 111,ZONEHVAC:IDEALLOADSAIRSYSTEM,ZONE HVAC IDEAL LOADS AIR SYSTEM 37,Outlet,1
 Non-Parent Node Connection,NODE 110,ZONEHVAC:IDEALLOADSAIRSYSTEM,ZONE HVAC IDEAL LOADS AIR SYSTEM 37,Inlet,1
 Non-Parent Node Connection,ZONE HVAC IDEAL LOADS AIR SYSTEM 37 OUTDOOR AIR INLET NODE,ZONEHVAC:IDEALLOADSAIRSYSTEM,ZONE HVAC IDEAL LOADS AIR SYSTEM 37,Outlet,1
 Non-Parent Node Connection,ZONE HVAC IDEAL LOADS AIR SYSTEM 37 OUTDOOR AIR INLET NODE,OUTDOORAIR:NODE,OutdoorAir:Node,OutdoorAir,38
 Non-Parent Node Connection,NODE 114,ZONEHVAC:IDEALLOADSAIRSYSTEM,ZONE HVAC IDEAL LOADS AIR SYSTEM 38,Outlet,1
 Non-Parent Node Connection,NODE 113,ZONEHVAC:IDEALLOADSAIRSYSTEM,ZONE HVAC IDEAL LOADS AIR SYSTEM 38,Inlet,1
 Non-Parent Node Connection,ZONE HVAC IDEAL LOADS AIR SYSTEM 38 OUTDOOR AIR INLET NODE,ZONEHVAC:IDEALLOADSAIRSYSTEM,ZONE HVAC IDEAL LOADS AIR SYSTEM 38,Outlet,1
 Non-Parent Node Connection,ZONE HVAC IDEAL LOADS AIR SYSTEM 38 OUTDOOR AIR INLET NODE,OUTDOORAIR:NODE,OutdoorAir:Node,OutdoorAir,39
 Non-Parent Node Connection,NODE 117,ZONEHVAC:IDEALLOADSAIRSYSTEM,ZONE HVAC IDEAL LOADS AIR SYSTEM 39,Outlet,1
 Non-Parent Node Connection,NODE 116,ZONEHVAC:IDEALLOADSAIRSYSTEM,ZONE HVAC IDEAL LOADS AIR SYSTEM 39,Inlet,1
 Non-Parent Node Connection,ZONE HVAC IDEAL LOADS AIR SYSTEM 39 OUTDOOR AIR INLET NODE,ZONEHVAC:IDEALLOADSAIRSYSTEM,ZONE HVAC IDEAL LOADS AIR SYSTEM 39,Outlet,1
 Non-Parent Node Connection,ZONE HVAC IDEAL LOADS AIR SYSTEM 39 OUTDOOR AIR INLET NODE,OUTDOORAIR:NODE,OutdoorAir:Node,OutdoorAir,40
 Non-Parent Node Connection,NODE 120,ZONEHVAC:IDEALLOADSAIRSYSTEM,ZONE HVAC IDEAL LOADS AIR SYSTEM 40,Outlet,1
 Non-Parent Node Connection,NODE 119,ZONEHVAC:IDEALLOADSAIRSYSTEM,ZONE HVAC IDEAL LOADS AIR SYSTEM 40,Inlet,1
 Non-Parent Node Connection,ZONE HVAC IDEAL LOADS AIR SYSTEM 40 OUTDOOR AIR INLET NODE,ZONEHVAC:IDEALLOADSAIRSYSTEM,ZONE HVAC IDEAL LOADS AIR SYSTEM 40,Outlet,1
 Non-Parent Node Connection,ZONE HVAC IDEAL LOADS AIR SYSTEM 40 OUTDOOR AIR INLET NODE,OUTDOORAIR:NODE,OutdoorAir:Node,OutdoorAir,41
 Non-Parent Node Connection,NODE 123,ZONEHVAC:IDEALLOADSAIRSYSTEM,ZONE HVAC IDEAL LOADS AIR SYSTEM 41,Outlet,1
 Non-Parent Node Connection,NODE 122,ZONEHVAC:IDEALLOADSAIRSYSTEM,ZONE HVAC IDEAL LOADS AIR SYSTEM 41,Inlet,1
 Non-Parent Node Connection,ZONE HVAC IDEAL LOADS AIR SYSTEM 41 OUTDOOR AIR INLET NODE,ZONEHVAC:IDEALLOADSAIRSYSTEM,ZONE HVAC IDEAL LOADS AIR SYSTEM 41,Outlet,1
 Non-Parent Node Connection,ZONE HVAC IDEAL LOADS AIR SYSTEM 41 OUTDOOR AIR INLET NODE,OUTDOORAIR:NODE,OutdoorAir:Node,OutdoorAir,42
 Non-Parent Node Connection,NODE 126,ZONEHVAC:IDEALLOADSAIRSYSTEM,ZONE HVAC IDEAL LOADS AIR SYSTEM 42,Outlet,1
 Non-Parent Node Connection,NODE 125,ZONEHVAC:IDEALLOADSAIRSYSTEM,ZONE HVAC IDEAL LOADS AIR SYSTEM 42,Inlet,1
 Non-Parent Node Connection,ZONE HVAC IDEAL LOADS AIR SYSTEM 42 OUTDOOR AIR INLET NODE,ZONEHVAC:IDEALLOADSAIRSYSTEM,ZONE HVAC IDEAL LOADS AIR SYSTEM 42,Outlet,1
 Non-Parent Node Connection,ZONE HVAC IDEAL LOADS AIR SYSTEM 42 OUTDOOR AIR INLET NODE,OUTDOORAIR:NODE,OutdoorAir:Node,OutdoorAir,43
 Non-Parent Node Connection,NODE 129,ZONEHVAC:IDEALLOADSAIRSYSTEM,ZONE HVAC IDEAL LOADS AIR SYSTEM 43,Outlet,1
 Non-Parent Node Connection,NODE 128,ZONEHVAC:IDEALLOADSAIRSYSTEM,ZONE HVAC IDEAL LOADS AIR SYSTEM 43,Inlet,1
 Non-Parent Node Connection,ZONE HVAC IDEAL LOADS AIR SYSTEM 43 OUTDOOR AIR INLET NODE,ZONEHVAC:IDEALLOADSAIRSYSTEM,ZONE HVAC IDEAL LOADS AIR SYSTEM 43,Outlet,1
 Non-Parent Node Connection,ZONE HVAC IDEAL LOADS AIR SYSTEM 43 OUTDOOR AIR INLET NODE,OUTDOORAIR:NODE,OutdoorAir:Node,OutdoorAir,44
 Non-Parent Node Connection,NODE 132,ZONEHVAC:IDEALLOADSAIRSYSTEM,ZONE HVAC IDEAL LOADS AIR SYSTEM 44,Outlet,1
 Non-Parent Node Connection,NODE 131,ZONEHVAC:IDEALLOADSAIRSYSTEM,ZONE HVAC IDEAL LOADS AIR SYSTEM 44,Inlet,1
 Non-Parent Node Connection,ZONE HVAC IDEAL LOADS AIR SYSTEM 44 OUTDOOR AIR INLET NODE,ZONEHVAC:IDEALLOADSAIRSYSTEM,ZONE HVAC IDEAL LOADS AIR SYSTEM 44,Outlet,1
 Non-Parent Node Connection,ZONE HVAC IDEAL LOADS AIR SYSTEM 44 OUTDOOR AIR INLET NODE,OUTDOORAIR:NODE,OutdoorAir:Node,OutdoorAir,45
 Non-Parent Node Connection,NODE 135,ZONEHVAC:IDEALLOADSAIRSYSTEM,ZONE HVAC IDEAL LOADS AIR SYSTEM 45,Outlet,1
 Non-Parent Node Connection,NODE 134,ZONEHVAC:IDEALLOADSAIRSYSTEM,ZONE HVAC IDEAL LOADS AIR SYSTEM 45,Inlet,1
 Non-Parent Node Connection,ZONE HVAC IDEAL LOADS AIR SYSTEM 45 OUTDOOR AIR INLET NODE,ZONEHVAC:IDEALLOADSAIRSYSTEM,ZONE HVAC IDEAL LOADS AIR SYSTEM 45,Outlet,1
 Non-Parent Node Connection,ZONE HVAC IDEAL LOADS AIR SYSTEM 45 OUTDOOR AIR INLET NODE,OUTDOORAIR:NODE,OutdoorAir:Node,OutdoorAir,46
 Non-Parent Node Connection,NODE 138,ZONEHVAC:IDEALLOADSAIRSYSTEM,ZONE HVAC IDEAL LOADS AIR SYSTEM 46,Outlet,1
 Non-Parent Node Connection,NODE 137,ZONEHVAC:IDEALLOADSAIRSYSTEM,ZONE HVAC IDEAL LOADS AIR SYSTEM 46,Inlet,1
 Non-Parent Node Connection,ZONE HVAC IDEAL LOADS AIR SYSTEM 46 OUTDOOR AIR INLET NODE,ZONEHVAC:IDEALLOADSAIRSYSTEM,ZONE HVAC IDEAL LOADS AIR SYSTEM 46,Outlet,1
 Non-Parent Node Connection,ZONE HVAC IDEAL LOADS AIR SYSTEM 46 OUTDOOR AIR INLET NODE,OUTDOORAIR:NODE,OutdoorAir:Node,OutdoorAir,47
 Non-Parent Node Connection,NODE 141,ZONEHVAC:IDEALLOADSAIRSYSTEM,ZONE HVAC IDEAL LOADS AIR SYSTEM 47,Outlet,1
 Non-Parent Node Connection,NODE 140,ZONEHVAC:IDEALLOADSAIRSYSTEM,ZONE HVAC IDEAL LOADS AIR SYSTEM 47,Inlet,1
 Non-Parent Node Connection,ZONE HVAC IDEAL LOADS AIR SYSTEM 47 OUTDOOR AIR INLET NODE,ZONEHVAC:IDEALLOADSAIRSYSTEM,ZONE HVAC IDEAL LOADS AIR SYSTEM 47,Outlet,1
 Non-Parent Node Connection,ZONE HVAC IDEAL LOADS AIR SYSTEM 47 OUTDOOR AIR INLET NODE,OUTDOORAIR:NODE,OutdoorAir:Node,OutdoorAir,48
 Non-Parent Node Connection,NODE 144,ZONEHVAC:IDEALLOADSAIRSYSTEM,ZONE HVAC IDEAL LOADS AIR SYSTEM 48,Outlet,1
 Non-Parent Node Connection,NODE 143,ZONEHVAC:IDEALLOADSAIRSYSTEM,ZONE HVAC IDEAL LOADS AIR SYSTEM 48,Inlet,1
 Non-Parent Node Connection,ZONE HVAC IDEAL LOADS AIR SYSTEM 48 OUTDOOR AIR INLET NODE,ZONEHVAC:IDEALLOADSAIRSYSTEM,ZONE HVAC IDEAL LOADS AIR SYSTEM 48,Outlet,1
 Non-Parent Node Connection,ZONE HVAC IDEAL LOADS AIR SYSTEM 48 OUTDOOR AIR INLET NODE,OUTDOORAIR:NODE,OutdoorAir:Node,OutdoorAir,49
 Non-Parent Node Connection,NODE 147,ZONEHVAC:IDEALLOADSAIRSYSTEM,ZONE HVAC IDEAL LOADS AIR SYSTEM 49,Outlet,1
 Non-Parent Node Connection,NODE 146,ZONEHVAC:IDEALLOADSAIRSYSTEM,ZONE HVAC IDEAL LOADS AIR SYSTEM 49,Inlet,1
 Non-Parent Node Connection,ZONE HVAC IDEAL LOADS AIR SYSTEM 49 OUTDOOR AIR INLET NODE,ZONEHVAC:IDEALLOADSAIRSYSTEM,ZONE HVAC IDEAL LOADS AIR SYSTEM 49,Outlet,1
 Non-Parent Node Connection,ZONE HVAC IDEAL LOADS AIR SYSTEM 49 OUTDOOR AIR INLET NODE,OUTDOORAIR:NODE,OutdoorAir:Node,OutdoorAir,50
 Non-Parent Node Connection,NODE 150,ZONEHVAC:IDEALLOADSAIRSYSTEM,ZONE HVAC IDEAL LOADS AIR SYSTEM 50,Outlet,1
 Non-Parent Node Connection,NODE 149,ZONEHVAC:IDEALLOADSAIRSYSTEM,ZONE HVAC IDEAL LOADS AIR SYSTEM 50,Inlet,1
 Non-Parent Node Connection,ZONE HVAC IDEAL LOADS AIR SYSTEM 50 OUTDOOR AIR INLET NODE,ZONEHVAC:IDEALLOADSAIRSYSTEM,ZONE HVAC IDEAL LOADS AIR SYSTEM 50,Outlet,1
 Non-Parent Node Connection,ZONE HVAC IDEAL LOADS AIR SYSTEM 50 OUTDOOR AIR INLET NODE,OUTDOORAIR:NODE,OutdoorAir:Node,OutdoorAir,51
 Non-Parent Node Connection,NODE 153,ZONEHVAC:IDEALLOADSAIRSYSTEM,ZONE HVAC IDEAL LOADS AIR SYSTEM 51,Outlet,1
 Non-Parent Node Connection,NODE 152,ZONEHVAC:IDEALLOADSAIRSYSTEM,ZONE HVAC IDEAL LOADS AIR SYSTEM 51,Inlet,1
 Non-Parent Node Connection,ZONE HVAC IDEAL LOADS AIR SYSTEM 51 OUTDOOR AIR INLET NODE,ZONEHVAC:IDEALLOADSAIRSYSTEM,ZONE HVAC IDEAL LOADS AIR SYSTEM 51,Outlet,1
 Non-Parent Node Connection,ZONE HVAC IDEAL LOADS AIR SYSTEM 51 OUTDOOR AIR INLET NODE,OUTDOORAIR:NODE,OutdoorAir:Node,OutdoorAir,52
 Non-Parent Node Connection,NODE 156,ZONEHVAC:IDEALLOADSAIRSYSTEM,ZONE HVAC IDEAL LOADS AIR SYSTEM 52,Outlet,1
 Non-Parent Node Connection,NODE 155,ZONEHVAC:IDEALLOADSAIRSYSTEM,ZONE HVAC IDEAL LOADS AIR SYSTEM 52,Inlet,1
 Non-Parent Node Connection,ZONE HVAC IDEAL LOADS AIR SYSTEM 52 OUTDOOR AIR INLET NODE,ZONEHVAC:IDEALLOADSAIRSYSTEM,ZONE HVAC IDEAL LOADS AIR SYSTEM 52,Outlet,1
 Non-Parent Node Connection,ZONE HVAC IDEAL LOADS AIR SYSTEM 52 OUTDOOR AIR INLET NODE,OUTDOORAIR:NODE,OutdoorAir:Node,OutdoorAir,53
 Non-Parent Node Connection,NODE 159,ZONEHVAC:IDEALLOADSAIRSYSTEM,ZONE HVAC IDEAL LOADS AIR SYSTEM 53,Outlet,1
 Non-Parent Node Connection,NODE 158,ZONEHVAC:IDEALLOADSAIRSYSTEM,ZONE HVAC IDEAL LOADS AIR SYSTEM 53,Inlet,1
 Non-Parent Node Connection,ZONE HVAC IDEAL LOADS AIR SYSTEM 53 OUTDOOR AIR INLET NODE,ZONEHVAC:IDEALLOADSAIRSYSTEM,ZONE HVAC IDEAL LOADS AIR SYSTEM 53,Outlet,1
 Non-Parent Node Connection,ZONE HVAC IDEAL LOADS AIR SYSTEM 53 OUTDOOR AIR INLET NODE,OUTDOORAIR:NODE,OutdoorAir:Node,OutdoorAir,54
 Non-Parent Node Connection,NODE 162,ZONEHVAC:IDEALLOADSAIRSYSTEM,ZONE HVAC IDEAL LOADS AIR SYSTEM 54,Outlet,1
 Non-Parent Node Connection,NODE 161,ZONEHVAC:IDEALLOADSAIRSYSTEM,ZONE HVAC IDEAL LOADS AIR SYSTEM 54,Inlet,1
 Non-Parent Node Connection,ZONE HVAC IDEAL LOADS AIR SYSTEM 54 OUTDOOR AIR INLET NODE,ZONEHVAC:IDEALLOADSAIRSYSTEM,ZONE HVAC IDEAL LOADS AIR SYSTEM 54,Outlet,1
 Non-Parent Node Connection,ZONE HVAC IDEAL LOADS AIR SYSTEM 54 OUTDOOR AIR INLET NODE,OUTDOORAIR:NODE,OutdoorAir:Node,OutdoorAir,55
 Non-Parent Node Connection,NODE 165,ZONEHVAC:IDEALLOADSAIRSYSTEM,ZONE HVAC IDEAL LOADS AIR SYSTEM 55,Outlet,1
 Non-Parent Node Connection,NODE 164,ZONEHVAC:IDEALLOADSAIRSYSTEM,ZONE HVAC IDEAL LOADS AIR SYSTEM 55,Inlet,1
 Non-Parent Node Connection,ZONE HVAC IDEAL LOADS AIR SYSTEM 55 OUTDOOR AIR INLET NODE,ZONEHVAC:IDEALLOADSAIRSYSTEM,ZONE HVAC IDEAL LOADS AIR SYSTEM 55,Outlet,1
 Non-Parent Node Connection,ZONE HVAC IDEAL LOADS AIR SYSTEM 55 OUTDOOR AIR INLET NODE,OUTDOORAIR:NODE,OutdoorAir:Node,OutdoorAir,56
 Non-Parent Node Connection,NODE 168,ZONEHVAC:IDEALLOADSAIRSYSTEM,ZONE HVAC IDEAL LOADS AIR SYSTEM 56,Outlet,1
 Non-Parent Node Connection,NODE 167,ZONEHVAC:IDEALLOADSAIRSYSTEM,ZONE HVAC IDEAL LOADS AIR SYSTEM 56,Inlet,1
 Non-Parent Node Connection,ZONE HVAC IDEAL LOADS AIR SYSTEM 56 OUTDOOR AIR INLET NODE,ZONEHVAC:IDEALLOADSAIRSYSTEM,ZONE HVAC IDEAL LOADS AIR SYSTEM 56,Outlet,1
 Non-Parent Node Connection,ZONE HVAC IDEAL LOADS AIR SYSTEM 56 OUTDOOR AIR INLET NODE,OUTDOORAIR:NODE,OutdoorAir:Node,OutdoorAir,57
 Non-Parent Node Connection,NODE 171,ZONEHVAC:IDEALLOADSAIRSYSTEM,ZONE HVAC IDEAL LOADS AIR SYSTEM 57,Outlet,1
 Non-Parent Node Connection,NODE 170,ZONEHVAC:IDEALLOADSAIRSYSTEM,ZONE HVAC IDEAL LOADS AIR SYSTEM 57,Inlet,1
 Non-Parent Node Connection,ZONE HVAC IDEAL LOADS AIR SYSTEM 57 OUTDOOR AIR INLET NODE,ZONEHVAC:IDEALLOADSAIRSYSTEM,ZONE HVAC IDEAL LOADS AIR SYSTEM 57,Outlet,1
 Non-Parent Node Connection,ZONE HVAC IDEAL LOADS AIR SYSTEM 57 OUTDOOR AIR INLET NODE,OUTDOORAIR:NODE,OutdoorAir:Node,OutdoorAir,58
 Non-Parent Node Connection,NODE 174,ZONEHVAC:IDEALLOADSAIRSYSTEM,ZONE HVAC IDEAL LOADS AIR SYSTEM 58,Outlet,1
 Non-Parent Node Connection,NODE 173,ZONEHVAC:IDEALLOADSAIRSYSTEM,ZONE HVAC IDEAL LOADS AIR SYSTEM 58,Inlet,1
 Non-Parent Node Connection,ZONE HVAC IDEAL LOADS AIR SYSTEM 58 OUTDOOR AIR INLET NODE,ZONEHVAC:IDEALLOADSAIRSYSTEM,ZONE HVAC IDEAL LOADS AIR SYSTEM 58,Outlet,1
 Non-Parent Node Connection,ZONE HVAC IDEAL LOADS AIR SYSTEM 58 OUTDOOR AIR INLET NODE,OUTDOORAIR:NODE,OutdoorAir:Node,OutdoorAir,59
 Non-Parent Node Connection,NODE 177,ZONEHVAC:IDEALLOADSAIRSYSTEM,ZONE HVAC IDEAL LOADS AIR SYSTEM 59,Outlet,1
 Non-Parent Node Connection,NODE 176,ZONEHVAC:IDEALLOADSAIRSYSTEM,ZONE HVAC IDEAL LOADS AIR SYSTEM 59,Inlet,1
 Non-Parent Node Connection,ZONE HVAC IDEAL LOADS AIR SYSTEM 59 OUTDOOR AIR INLET NODE,ZONEHVAC:IDEALLOADSAIRSYSTEM,ZONE HVAC IDEAL LOADS AIR SYSTEM 59,Outlet,1
 Non-Parent Node Connection,ZONE HVAC IDEAL LOADS AIR SYSTEM 59 OUTDOOR AIR INLET NODE,OUTDOORAIR:NODE,OutdoorAir:Node,OutdoorAir,60
 Non-Parent Node Connection,NODE 180,ZONEHVAC:IDEALLOADSAIRSYSTEM,ZONE HVAC IDEAL LOADS AIR SYSTEM 60,Outlet,1
 Non-Parent Node Connection,NODE 179,ZONEHVAC:IDEALLOADSAIRSYSTEM,ZONE HVAC IDEAL LOADS AIR SYSTEM 60,Inlet,1
 Non-Parent Node Connection,ZONE HVAC IDEAL LOADS AIR SYSTEM 60 OUTDOOR AIR INLET NODE,ZONEHVAC:IDEALLOADSAIRSYSTEM,ZONE HVAC IDEAL LOADS AIR SYSTEM 60,Outlet,1
 Non-Parent Node Connection,ZONE HVAC IDEAL LOADS AIR SYSTEM 60 OUTDOOR AIR INLET NODE,OUTDOORAIR:NODE,OutdoorAir:Node,OutdoorAir,61
 Non-Parent Node Connection,NODE 183,ZONEHVAC:IDEALLOADSAIRSYSTEM,ZONE HVAC IDEAL LOADS AIR SYSTEM 61,Outlet,1
 Non-Parent Node Connection,NODE 182,ZONEHVAC:IDEALLOADSAIRSYSTEM,ZONE HVAC IDEAL LOADS AIR SYSTEM 61,Inlet,1
 Non-Parent Node Connection,ZONE HVAC IDEAL LOADS AIR SYSTEM 61 OUTDOOR AIR INLET NODE,ZONEHVAC:IDEALLOADSAIRSYSTEM,ZONE HVAC IDEAL LOADS AIR SYSTEM 61,Outlet,1
 Non-Parent Node Connection,ZONE HVAC IDEAL LOADS AIR SYSTEM 61 OUTDOOR AIR INLET NODE,OUTDOORAIR:NODE,OutdoorAir:Node,OutdoorAir,62
 Non-Parent Node Connection,NODE 186,ZONEHVAC:IDEALLOADSAIRSYSTEM,ZONE HVAC IDEAL LOADS AIR SYSTEM 62,Outlet,1
 Non-Parent Node Connection,NODE 185,ZONEHVAC:IDEALLOADSAIRSYSTEM,ZONE HVAC IDEAL LOADS AIR SYSTEM 62,Inlet,1
 Non-Parent Node Connection,ZONE HVAC IDEAL LOADS AIR SYSTEM 62 OUTDOOR AIR INLET NODE,ZONEHVAC:IDEALLOADSAIRSYSTEM,ZONE HVAC IDEAL LOADS AIR SYSTEM 62,Outlet,1
 Non-Parent Node Connection,ZONE HVAC IDEAL LOADS AIR SYSTEM 62 OUTDOOR AIR INLET NODE,OUTDOORAIR:NODE,OutdoorAir:Node,OutdoorAir,63
 Non-Parent Node Connection,NODE 189,ZONEHVAC:IDEALLOADSAIRSYSTEM,ZONE HVAC IDEAL LOADS AIR SYSTEM 63,Outlet,1
 Non-Parent Node Connection,NODE 188,ZONEHVAC:IDEALLOADSAIRSYSTEM,ZONE HVAC IDEAL LOADS AIR SYSTEM 63,Inlet,1
 Non-Parent Node Connection,ZONE HVAC IDEAL LOADS AIR SYSTEM 63 OUTDOOR AIR INLET NODE,ZONEHVAC:IDEALLOADSAIRSYSTEM,ZONE HVAC IDEAL LOADS AIR SYSTEM 63,Outlet,1
 Non-Parent Node Connection,ZONE HVAC IDEAL LOADS AIR SYSTEM 63 OUTDOOR AIR INLET NODE,OUTDOORAIR:NODE,OutdoorAir:Node,OutdoorAir,64
 Non-Parent Node Connection,NODE 192,ZONEHVAC:IDEALLOADSAIRSYSTEM,ZONE HVAC IDEAL LOADS AIR SYSTEM 64,Outlet,1
 Non-Parent Node Connection,NODE 191,ZONEHVAC:IDEALLOADSAIRSYSTEM,ZONE HVAC IDEAL LOADS AIR SYSTEM 64,Inlet,1
 Non-Parent Node Connection,ZONE HVAC IDEAL LOADS AIR SYSTEM 64 OUTDOOR AIR INLET NODE,ZONEHVAC:IDEALLOADSAIRSYSTEM,ZONE HVAC IDEAL LOADS AIR SYSTEM 64,Outlet,1
 Non-Parent Node Connection,ZONE HVAC IDEAL LOADS AIR SYSTEM 64 OUTDOOR AIR INLET NODE,OUTDOORAIR:NODE,OutdoorAir:Node,OutdoorAir,65
 Non-Parent Node Connection,NODE 195,ZONEHVAC:IDEALLOADSAIRSYSTEM,ZONE HVAC IDEAL LOADS AIR SYSTEM 65,Outlet,1
 Non-Parent Node Connection,NODE 194,ZONEHVAC:IDEALLOADSAIRSYSTEM,ZONE HVAC IDEAL LOADS AIR SYSTEM 65,Inlet,1
 Non-Parent Node Connection,ZONE HVAC IDEAL LOADS AIR SYSTEM 65 OUTDOOR AIR INLET NODE,ZONEHVAC:IDEALLOADSAIRSYSTEM,ZONE HVAC IDEAL LOADS AIR SYSTEM 65,Outlet,1
 Non-Parent Node Connection,ZONE HVAC IDEAL LOADS AIR SYSTEM 65 OUTDOOR AIR INLET NODE,OUTDOORAIR:NODE,OutdoorAir:Node,OutdoorAir,66
 Non-Parent Node Connection,NODE 198,ZONEHVAC:IDEALLOADSAIRSYSTEM,ZONE HVAC IDEAL LOADS AIR SYSTEM 66,Outlet,1
 Non-Parent Node Connection,NODE 197,ZONEHVAC:IDEALLOADSAIRSYSTEM,ZONE HVAC IDEAL LOADS AIR SYSTEM 66,Inlet,1
 Non-Parent Node Connection,ZONE HVAC IDEAL LOADS AIR SYSTEM 66 OUTDOOR AIR INLET NODE,ZONEHVAC:IDEALLOADSAIRSYSTEM,ZONE HVAC IDEAL LOADS AIR SYSTEM 66,Outlet,1
 Non-Parent Node Connection,ZONE HVAC IDEAL LOADS AIR SYSTEM 66 OUTDOOR AIR INLET NODE,OUTDOORAIR:NODE,OutdoorAir:Node,OutdoorAir,67
 Non-Parent Node Connection,NODE 201,ZONEHVAC:IDEALLOADSAIRSYSTEM,ZONE HVAC IDEAL LOADS AIR SYSTEM 67,Outlet,1
 Non-Parent Node Connection,NODE 200,ZONEHVAC:IDEALLOADSAIRSYSTEM,ZONE HVAC IDEAL LOADS AIR SYSTEM 67,Inlet,1
 Non-Parent Node Connection,ZONE HVAC IDEAL LOADS AIR SYSTEM 67 OUTDOOR AIR INLET NODE,ZONEHVAC:IDEALLOADSAIRSYSTEM,ZONE HVAC IDEAL LOADS AIR SYSTEM 67,Outlet,1
 Non-Parent Node Connection,ZONE HVAC IDEAL LOADS AIR SYSTEM 67 OUTDOOR AIR INLET NODE,OUTDOORAIR:NODE,OutdoorAir:Node,OutdoorAir,68
