{
  "completed_at": "20190221T165252Z",
  "completed_status": "Success",
  "created_at": "2019-02-21 16:46:40 +0000",
  "current_step": 6,
  "description": "",
  "eplusout_err": "Program Version,EnergyPlus, Version 8.9.0-eba93e8e1b, YMD=2019.02.21 16:50,\n   ************* Beginning Zone Sizing Calculations\n   ** Warning ** ProcessScheduleInput: Schedule:Day:Interval=\"ECONOMIZER MAX OA FRACTION 100 PCT DEFAULT\", Blank Schedule Type Limits Name input -- will not be validated.\n   ** Warning ** ProcessScheduleInput: Schedule:Day:Interval=\"SCHEDULE DAY 1\", Blank Schedule Type Limits Name input -- will not be validated.\n   ** Warning ** ProcessScheduleInput: Schedule:Day:Interval=\"SCHEDULE DAY 10\", Blank Schedule Type Limits Name input -- will not be validated.\n   ** Warning ** ProcessScheduleInput: Schedule:Day:Interval=\"SCHEDULE DAY 11\", Blank Schedule Type Limits Name input -- will not be validated.\n   ** Warning ** ProcessScheduleInput: Schedule:Day:Interval=\"SCHEDULE DAY 12\", Blank Schedule Type Limits Name input -- will not be validated.\n   ** Warning ** ProcessScheduleInput: Schedule:Day:Interval=\"SCHEDULE DAY 13\", Blank Schedule Type Limits Name input -- will not be validated.\n   ** Warning ** ProcessScheduleInput: Schedule:Day:Interval=\"SCHEDULE DAY 14\", Blank Schedule Type Limits Name input -- will not be validated.\n   ** Warning ** ProcessScheduleInput: Schedule:Day:Interval=\"SCHEDULE DAY 15\", Blank Schedule Type Limits Name input -- will not be validated.\n   ** Warning ** ProcessScheduleInput: Schedule:Day:Interval=\"SCHEDULE DAY 16\", Blank Schedule Type Limits Name input -- will not be validated.\n   ** Warning ** ProcessScheduleInput: Schedule:Day:Interval=\"SCHEDULE DAY 17\", Blank Schedule Type Limits Name input -- will not be validated.\n   ** Warning ** ProcessScheduleInput: Schedule:Day:Interval=\"SCHEDULE DAY 18\", Blank Schedule Type Limits Name input -- will not be validated.\n   ** Warning ** ProcessScheduleInput: Schedule:Day:Interval=\"SCHEDULE DAY 19\", Blank Schedule Type Limits Name input -- will not be validated.\n   ** Warning ** ProcessScheduleInput: Schedule:Day:Interval=\"SCHEDULE DAY 2\", Blank Schedule Type Limits Name input -- will not be validated.\n   ** Warning ** ProcessScheduleInput: Schedule:Day:Interval=\"SCHEDULE DAY 20\", Blank Schedule Type Limits Name input -- will not be validated.\n   ** Warning ** ProcessScheduleInput: Schedule:Day:Interval=\"SCHEDULE DAY 21\", Blank Schedule Type Limits Name input -- will not be validated.\n   ** Warning ** ProcessScheduleInput: Schedule:Day:Interval=\"SCHEDULE DAY 5\", Blank Schedule Type Limits Name input -- will not be validated.\n   ** Warning ** ProcessScheduleInput: Schedule:Day:Interval=\"SCHEDULE DAY 6\", Blank Schedule Type Limits Name input -- will not be validated.\n   ** Warning ** ProcessScheduleInput: Schedule:Day:Interval=\"SCHEDULE DAY 7\", Blank Schedule Type Limits Name input -- will not be validated.\n   ** Warning ** ProcessScheduleInput: Schedule:Day:Interval=\"SCHEDULE DAY 8\", Blank Schedule Type Limits Name input -- will not be validated.\n   ** Warning ** ProcessScheduleInput: Schedule:Day:Interval=\"SCHEDULE DAY 9\", Blank Schedule Type Limits Name input -- will not be validated.\n   ** Warning ** ProcessScheduleInput: Schedule:Year=\"ECONOMIZER MAX OA FRACTION 100 PCT\", Blank Schedule Type Limits Name input -- will not be validated.\n   ** Warning ** ProcessScheduleInput: Schedule:Year=\"SCHEDULE RULESET 10\", Blank Schedule Type Limits Name input -- will not be validated.\n   ** Warning ** ProcessScheduleInput: Schedule:Year=\"SCHEDULE RULESET 11\", Blank Schedule Type Limits Name input -- will not be validated.\n   ** Warning ** ProcessScheduleInput: Schedule:Year=\"SCHEDULE RULESET 12\", Blank Schedule Type Limits Name input -- will not be validated.\n   ** Warning ** ProcessScheduleInput: Schedule:Year=\"SCHEDULE RULESET 13\", Blank Schedule Type Limits Name input -- will not be validated.\n   ** Warning ** ProcessScheduleInput: Schedule:Year=\"SCHEDULE RULESET 14\", Blank Schedule Type Limits Name input -- will not be validated.\n   ** Warning ** ProcessScheduleInput: Schedule:Year=\"SCHEDULE RULESET 15\", Blank Schedule Type Limits Name input -- will not be validated.\n   ** Warning ** ProcessScheduleInput: Schedule:Year=\"SCHEDULE RULESET 16\", Blank Schedule Type Limits Name input -- will not be validated.\n   ** Warning ** ProcessScheduleInput: Schedule:Year=\"SCHEDULE RULESET 17\", Blank Schedule Type Limits Name input -- will not be validated.\n   ** Warning ** ProcessScheduleInput: Schedule:Year=\"SCHEDULE RULESET 3\", Blank Schedule Type Limits Name input -- will not be validated.\n   ** Warning ** ProcessScheduleInput: Schedule:Year=\"SCHEDULE RULESET 4\", Blank Schedule Type Limits Name input -- will not be validated.\n   ** Warning ** ProcessScheduleInput: Schedule:Year=\"SCHEDULE RULESET 5\", Blank Schedule Type Limits Name input -- will not be validated.\n   ** Warning ** ProcessScheduleInput: Schedule:Year=\"SCHEDULE RULESET 6\", Blank Schedule Type Limits Name input -- will not be validated.\n   ** Warning ** ProcessScheduleInput: Schedule:Year=\"SCHEDULE RULESET 7\", Blank Schedule Type Limits Name input -- will not be validated.\n   ** Warning ** ProcessScheduleInput: Schedule:Year=\"SCHEDULE RULESET 8\", Blank Schedule Type Limits Name input -- will not be validated.\n   ** Warning ** ProcessScheduleInput: Schedule:Year=\"SCHEDULE RULESET 9\", Blank Schedule Type Limits Name input -- will not be validated.\n   ** Warning ** ProcessScheduleInput: Schedule:Constant=\"ALWAYS OFF DISCRETE\", Blank Schedule Type Limits Name input -- will not be validated.\n   ** Warning ** ProcessScheduleInput: Schedule:Constant=\"ALWAYS ON CONTINUOUS\", Blank Schedule Type Limits Name input -- will not be validated.\n   ** Warning ** CheckUsedConstructions: There are 18 nominally unused constructions in input.\n   **   ~~~   ** For explicit details on each unused construction, use Output:Diagnostics,DisplayExtraWarnings;\n   ** Warning ** GetInternalHeatGains: ElectricEquipment Combination of ZoneList and Object Name generate a name too long.\n   **   ~~~   ** Object Name=\"SPACE FUNCTION OFFICE ENCLOSED <= 25 M2 ELEC EQUIP\".\n   **   ~~~   ** ZoneList/Zone Name=\"SP-PERIMETER_ZN_1 SYS-3 FLR-1 SCH-A HPLCMT-SOUTH ZN\".\n   **   ~~~   ** Item length=[101] > Maximum Length=[100]. You may need to shorten the names.\n   **   ~~~   ** Shortening the Object Name by [2] characters will assure uniqueness for this ZoneList.\n   **   ~~~   ** name that will be used (may be needed in reporting)=\"SP-PERIMETER_ZN_1 SYS-3 FLR-1 SCH-A HPLCMT-SOUTH ZN SPACE FUNCTION OFFICE ENCLOSED <= 25 M2 ELEC EQUIP\".\n   ** Warning ** GetInternalHeatGains: ElectricEquipment Combination of ZoneList and Object Name generate a name too long.\n   **   ~~~   ** Object Name=\"SPACE FUNCTION OFFICE ENCLOSED <= 25 M2 ELEC EQUIP\".\n   **   ~~~   ** ZoneList/Zone Name=\"SP-PERIMETER_ZN_3 SYS-3 FLR-1 SCH-A HPLCMT-NORTH ZN\".\n   **   ~~~   ** Item length=[101] > Maximum Length=[100]. You may need to shorten the names.\n   **   ~~~   ** Shortening the Object Name by [2] characters will assure uniqueness for this ZoneList.\n   **   ~~~   ** name that will be used (may be needed in reporting)=\"SP-PERIMETER_ZN_3 SYS-3 FLR-1 SCH-A HPLCMT-NORTH ZN SPACE FUNCTION OFFICE ENCLOSED <= 25 M2 ELEC EQUIP\".\n   ************* Beginning System Sizing Calculations\n   ************* Beginning Plant Sizing Calculations\n   ** Warning ** GetDXCoils: Coil:Cooling:DX:SingleSpeed=\"COIL COOLING DX SINGLE SPEED 5 15KBTU/HR 14.0SEER\", invalid\n   **   ~~~   ** ...Part Load Fraction Correlation Curve Name = DXCOOL-NECB2011-REF-COOLPLFFPLR has out of range value.\n   **   ~~~   ** ...Curve maximum must be <= 1.0, curve max at PLR = 0.99 is 1.015\n   **   ~~~   ** ...Setting curve maximum to 1.0 and simulation continues.\n   ** Warning ** The Standard Ratings is calculated for Coil:Cooling:DX:SingleSpeed = COIL COOLING DX SINGLE SPEED 5 15KBTU/HR 14.0SEER but not at the AHRI test condition due to curve out of bound.\n   **   ~~~   **  Review the Standard Ratings calculations in the Engineering Reference for this coil type. Also, use Output:Diagnostics, DisplayExtraWarnings for further guidance.\n   ** Warning ** The Standard Ratings is calculated for Coil:Cooling:DX:SingleSpeed = COIL COOLING DX SINGLE SPEED 4 27KBTU/HR 14.0SEER but not at the AHRI test condition due to curve out of bound.\n   **   ~~~   **  Review the Standard Ratings calculations in the Engineering Reference for this coil type. Also, use Output:Diagnostics, DisplayExtraWarnings for further guidance.\n   ** Warning ** The Standard Ratings is calculated for Coil:Cooling:DX:SingleSpeed = COIL COOLING DX SINGLE SPEED 2 18KBTU/HR 14.0SEER but not at the AHRI test condition due to curve out of bound.\n   **   ~~~   **  Review the Standard Ratings calculations in the Engineering Reference for this coil type. Also, use Output:Diagnostics, DisplayExtraWarnings for further guidance.\n   ** Warning ** The Standard Ratings is calculated for Coil:Cooling:DX:SingleSpeed = COIL COOLING DX SINGLE SPEED 1 14KBTU/HR 14.0SEER but not at the AHRI test condition due to curve out of bound.\n   **   ~~~   **  Review the Standard Ratings calculations in the Engineering Reference for this coil type. Also, use Output:Diagnostics, DisplayExtraWarnings for further guidance.\n   ** Warning ** The Standard Ratings is calculated for Coil:Cooling:DX:SingleSpeed = COIL COOLING DX SINGLE SPEED 3 19KBTU/HR 14.0SEER but not at the AHRI test condition due to curve out of bound.\n   **   ~~~   **  Review the Standard Ratings calculations in the Engineering Reference for this coil type. Also, use Output:Diagnostics, DisplayExtraWarnings for further guidance.\n   ** Warning ** Output:Meter: invalid Key Name=\"GAS:FACILITY\" - not found.\n   ** Warning ** Output:Meter: invalid Key Name=\"DISTRICTCOOLING:FACILITY\" - not found.\n   ** Warning ** Output:Meter: invalid Key Name=\"DISTRICTHEATING:FACILITY\" - not found.\n   ** Warning ** Output:Meter:MeterFileOnly: invalid Key Name=\"GAS:FACILITY\" - not found.\n   ** Warning ** Output:Meter:MeterFileOnly: invalid Key Name=\"GAS:FACILITY\" - not found.\n   ** Warning ** Output:Meter:MeterFileOnly requested for \"Electricity:Facility\" (TimeStep), already on \"Output:Meter\". Will report to both eplusout.eso and eplusout.mtr\n   ************* Testing Individual Branch Integrity\n   ************* All Branches passed integrity testing\n   ************* Testing Individual Supply Air Path Integrity\n   ************* All Supply Air Paths passed integrity testing\n   ************* Testing Individual Return Air Path Integrity\n   ************* All Return Air Paths passed integrity testing\n   ************* No node connection errors were found.\n   ************* Beginning Simulation\n   ** Warning ** Processing Monthly Tabular Reports: Variable names not valid for this simulation\n   **   ~~~   ** ...use Output:Diagnostics,DisplayExtraWarnings; to show more details on individual variables.\n   ** Warning ** CalcDoe2DXCoil: Coil:Cooling:DX:SingleSpeed \"COIL COOLING DX SINGLE SPEED 4 27KBTU/HR 14.0SEER\" - Air-cooled condenser inlet dry-bulb temperature below 0 C. Outdoor dry-bulb temperature = -23.87\n   **   ~~~   **  ... Occurrence info = RUN PERIOD 1, 01/05 06:02 - 06:03\n   **   ~~~   ** ... Operation at low ambient temperatures may require special performance curves.\n   ** Warning ** CalcDoe2DXCoil: Coil:Cooling:DX:SingleSpeed \"COIL COOLING DX SINGLE SPEED 2 18KBTU/HR 14.0SEER\" - Air-cooled condenser inlet dry-bulb temperature below 0 C. Outdoor dry-bulb temperature = -23.87\n   **   ~~~   **  ... Occurrence info = RUN PERIOD 1, 01/05 06:02 - 06:03\n   **   ~~~   ** ... Operation at low ambient temperatures may require special performance curves.\n   ** Warning ** CalcDoe2DXCoil: Coil:Cooling:DX:SingleSpeed \"COIL COOLING DX SINGLE SPEED 3 19KBTU/HR 14.0SEER\" - Air-cooled condenser inlet dry-bulb temperature below 0 C. Outdoor dry-bulb temperature = -23.87\n   **   ~~~   **  ... Occurrence info = RUN PERIOD 1, 01/05 06:02 - 06:03\n   **   ~~~   ** ... Operation at low ambient temperatures may require special performance curves.\n   ** Warning ** CalcDoe2DXCoil: Coil:Cooling:DX:SingleSpeed \"COIL COOLING DX SINGLE SPEED 5 15KBTU/HR 14.0SEER\" - Air-cooled condenser inlet dry-bulb temperature below 0 C. Outdoor dry-bulb temperature = -22.53\n   **   ~~~   **  ... Occurrence info = RUN PERIOD 1, 01/05 07:03 - 07:05\n   **   ~~~   ** ... Operation at low ambient temperatures may require special performance curves.\n   ** Warning ** CalcDoe2DXCoil: Coil:Cooling:DX:SingleSpeed \"COIL COOLING DX SINGLE SPEED 1 14KBTU/HR 14.0SEER\" - Air-cooled condenser inlet dry-bulb temperature below 0 C. Outdoor dry-bulb temperature = -17.33\n   **   ~~~   **  ... Occurrence info = RUN PERIOD 1, 01/05 21:10 - 21:12\n   **   ~~~   ** ... Operation at low ambient temperatures may require special performance curves.\n   ** Warning ** CalcDoe2DXCoil: Coil:Cooling:DX:SingleSpeed \"COIL COOLING DX SINGLE SPEED 5 15KBTU/HR 14.0SEER\" - Full load outlet air dry-bulb temperature < 2C. This indicates the possibility of coil frost/freeze. Outlet temperature = 1.75 C.\n   **   ~~~   **  ...Occurrence info = RUN PERIOD 1, 01/06 21:10 - 21:12\n   **   ~~~   ** ... Possible reasons for low outlet air dry-bulb temperatures are: This DX coil\n   **   ~~~   **    1) may have a low inlet air dry-bulb temperature. Inlet air temperature = 14.667 C.\n   **   ~~~   **    2) may have a low air flow rate per watt of cooling capacity. Check inputs.\n   **   ~~~   **    3) is used as part of a HX assisted cooling coil which uses a high sensible effectiveness. Check inputs.\n   ** Warning ** CalcDoe2DXCoil: Coil:Cooling:DX:SingleSpeed \"COIL COOLING DX SINGLE SPEED 1 14KBTU/HR 14.0SEER\" - Full load outlet air dry-bulb temperature < 2C. This indicates the possibility of coil frost/freeze. Outlet temperature = 1.56 C.\n   **   ~~~   **  ...Occurrence info = RUN PERIOD 1, 01/06 21:20 - 21:22\n   **   ~~~   ** ... Possible reasons for low outlet air dry-bulb temperatures are: This DX coil\n   **   ~~~   **    1) may have a low inlet air dry-bulb temperature. Inlet air temperature = 14.474 C.\n   **   ~~~   **    2) may have a low air flow rate per watt of cooling capacity. Check inputs.\n   **   ~~~   **    3) is used as part of a HX assisted cooling coil which uses a high sensible effectiveness. Check inputs.\n   ** Warning ** CalcDoe2DXCoil: Coil:Cooling:DX:SingleSpeed \"COIL COOLING DX SINGLE SPEED 2 18KBTU/HR 14.0SEER\" - Full load outlet air dry-bulb temperature < 2C. This indicates the possibility of coil frost/freeze. Outlet temperature = 1.68 C.\n   **   ~~~   **  ...Occurrence info = RUN PERIOD 1, 11/23 21:20 - 21:23\n   **   ~~~   ** ... Possible reasons for low outlet air dry-bulb temperatures are: This DX coil\n   **   ~~~   **    1) may have a low inlet air dry-bulb temperature. Inlet air temperature = 14.574 C.\n   **   ~~~   **    2) may have a low air flow rate per watt of cooling capacity. Check inputs.\n   **   ~~~   **    3) is used as part of a HX assisted cooling coil which uses a high sensible effectiveness. Check inputs.\n   ** Warning ** CalcDoe2DXCoil: Coil:Cooling:DX:SingleSpeed \"COIL COOLING DX SINGLE SPEED 3 19KBTU/HR 14.0SEER\" - Full load outlet air dry-bulb temperature < 2C. This indicates the possibility of coil frost/freeze. Outlet temperature = 1.95 C.\n   **   ~~~   **  ...Occurrence info = RUN PERIOD 1, 11/23 21:20 - 21:23\n   **   ~~~   ** ... Possible reasons for low outlet air dry-bulb temperatures are: This DX coil\n   **   ~~~   **    1) may have a low inlet air dry-bulb temperature. Inlet air temperature = 14.844 C.\n   **   ~~~   **    2) may have a low air flow rate per watt of cooling capacity. Check inputs.\n   **   ~~~   **    3) is used as part of a HX assisted cooling coil which uses a high sensible effectiveness. Check inputs.\n   ** Warning ** The resource referenced by LifeCycleCost:UsePriceEscalation= \"U.S. AVG  COMMERCIAL-ELECTRICITY\" has no energy cost. \n   **   ~~~   ** ... It is likely that the wrong resource is used. The resource should match the meter used in Utility:Tariff.\n   ** Warning ** The resource referenced by LifeCycleCost:UsePriceEscalation= \"U.S. AVG  COMMERCIAL-DISTILLATE OIL\" has no energy cost. \n   **   ~~~   ** ... It is likely that the wrong resource is used. The resource should match the meter used in Utility:Tariff.\n   ** Warning ** The resource referenced by LifeCycleCost:UsePriceEscalation= \"U.S. AVG  COMMERCIAL-RESIDUAL OIL\" has no energy cost. \n   **   ~~~   ** ... It is likely that the wrong resource is used. The resource should match the meter used in Utility:Tariff.\n   ** Warning ** The resource referenced by LifeCycleCost:UsePriceEscalation= \"U.S. AVG  COMMERCIAL-NATURAL GAS\" has no energy cost. \n   **   ~~~   ** ... It is likely that the wrong resource is used. The resource should match the meter used in Utility:Tariff.\n   ** Warning ** The resource referenced by LifeCycleCost:UsePriceEscalation= \"U.S. AVG  COMMERCIAL-COAL\" has no energy cost. \n   **   ~~~   ** ... It is likely that the wrong resource is used. The resource should match the meter used in Utility:Tariff.\n   ************* Simulation Error Summary *************\n   ************* There are 9 unused schedules in input.\n   ************* There are 9 unused week schedules in input.\n   ************* There are 14 unused day schedules in input.\n   ************* Use Output:Diagnostics,DisplayUnusedSchedules; to see them.\n   *************\n   ************* ===== Recurring Error Summary =====\n   ************* The following recurring error messages occurred.\n   *************\n   *************  ** Warning ** CalcDoe2DXCoil: Coil:Cooling:DX:SingleSpeed=\"COIL COOLING DX SINGLE SPEED 4 27KBTU/HR 14.0SEER\" - Low condenser dry-bulb temperature error continues...\n   *************  **   ~~~   **   This error occurred 1877 total times;\n   *************  **   ~~~   **   during Warmup 0 times;\n   *************  **   ~~~   **   during Sizing 0 times.\n   *************  **   ~~~   **   Max=-2.775558E-017 [C]  Min=-24.966667 [C]\n   *************\n   *************  ** Warning ** CalcDoe2DXCoil: Coil:Cooling:DX:SingleSpeed=\"COIL COOLING DX SINGLE SPEED 2 18KBTU/HR 14.0SEER\" - Low condenser dry-bulb temperature error continues...\n   *************  **   ~~~   **   This error occurred 2041 total times;\n   *************  **   ~~~   **   during Warmup 0 times;\n   *************  **   ~~~   **   during Sizing 0 times.\n   *************  **   ~~~   **   Max=-1.666667E-002 [C]  Min=-24.95 [C]\n   *************\n   *************  ** Warning ** CalcDoe2DXCoil: Coil:Cooling:DX:SingleSpeed=\"COIL COOLING DX SINGLE SPEED 3 19KBTU/HR 14.0SEER\" - Low condenser dry-bulb temperature error continues...\n   *************  **   ~~~   **   This error occurred 1766 total times;\n   *************  **   ~~~   **   during Warmup 0 times;\n   *************  **   ~~~   **   during Sizing 0 times.\n   *************  **   ~~~   **   Max=-1.666667E-002 [C]  Min=-24.95 [C]\n   *************\n   *************  ** Warning ** CalcDoe2DXCoil: Coil:Cooling:DX:SingleSpeed=\"COIL COOLING DX SINGLE SPEED 5 15KBTU/HR 14.0SEER\" - Low condenser dry-bulb temperature error continues...\n   *************  **   ~~~   **   This error occurred 712 total times;\n   *************  **   ~~~   **   during Warmup 0 times;\n   *************  **   ~~~   **   during Sizing 0 times.\n   *************  **   ~~~   **   Max=-1.666667E-002 [C]  Min=-23.783333 [C]\n   *************\n   *************  ** Warning ** CalcDoe2DXCoil: Coil:Cooling:DX:SingleSpeed=\"COIL COOLING DX SINGLE SPEED 1 14KBTU/HR 14.0SEER\" - Low condenser dry-bulb temperature error continues...\n   *************  **   ~~~   **   This error occurred 560 total times;\n   *************  **   ~~~   **   during Warmup 0 times;\n   *************  **   ~~~   **   during Sizing 0 times.\n   *************  **   ~~~   **   Max=-1.666667E-002 [C]  Min=-23.55 [C]\n   *************\n   *************  ** Warning ** CalcDoe2DXCoil: Coil:Cooling:DX:SingleSpeed=\"COIL COOLING DX SINGLE SPEED 5 15KBTU/HR 14.0SEER\" - Full load outlet temperature indicates a possibility of frost/freeze error continues. Outlet air temperature statistics follow:\n   *************  **   ~~~   **   This error occurred 46 total times;\n   *************  **   ~~~   **   during Warmup 0 times;\n   *************  **   ~~~   **   during Sizing 0 times.\n   *************  **   ~~~   **   Max=1.99441  Min=-0.879055\n   *************\n   *************  ** Warning ** CalcDoe2DXCoil: Coil:Cooling:DX:SingleSpeed=\"COIL COOLING DX SINGLE SPEED 1 14KBTU/HR 14.0SEER\" - Full load outlet temperature indicates a possibility of frost/freeze error continues. Outlet air temperature statistics follow:\n   *************  **   ~~~   **   This error occurred 33 total times;\n   *************  **   ~~~   **   during Warmup 0 times;\n   *************  **   ~~~   **   during Sizing 0 times.\n   *************  **   ~~~   **   Max=1.98714  Min=-4.009178E-002\n   *************\n   *************  ** Warning ** CalcDoe2DXCoil: Coil:Cooling:DX:SingleSpeed=\"COIL COOLING DX SINGLE SPEED 2 18KBTU/HR 14.0SEER\" - Full load outlet temperature indicates a possibility of frost/freeze error continues. Outlet air temperature statistics follow:\n   *************  **   ~~~   **   This error occurred 1 total times;\n   *************  **   ~~~   **   during Warmup 0 times;\n   *************  **   ~~~   **   during Sizing 0 times.\n   *************  **   ~~~   **   Max=1.678432  Min=1.678432\n   *************\n   *************  ** Warning ** CalcDoe2DXCoil: Coil:Cooling:DX:SingleSpeed=\"COIL COOLING DX SINGLE SPEED 3 19KBTU/HR 14.0SEER\" - Full load outlet temperature indicates a possibility of frost/freeze error continues. Outlet air temperature statistics follow:\n   *************  **   ~~~   **   This error occurred 1 total times;\n   *************  **   ~~~   **   during Warmup 0 times;\n   *************  **   ~~~   **   during Sizing 0 times.\n   *************  **   ~~~   **   Max=1.949604  Min=1.949604\n   *************\n   *************\n   ************* ===== Final Error Summary =====\n   ************* The following error categories occurred.  Consider correcting or noting.\n   ************* Nominally Unused Constructions\n   ************* ..The nominally unused constructions warning is provided to alert you to potential conditions that can cause\n   ************* ..extra time during simulation. Each construction is calculated by the algorithm indicated in the HeatBalanceAlgorithm\n   ************* ..object. You may remove the constructions indicated (when you use the DisplayExtraWarnings option).\n   *************\n   ************* EnergyPlus Warmup Error Summary. During Warmup: 0 Warning; 0 Severe Errors.\n   ************* EnergyPlus Sizing Error Summary. During Sizing: 41 Warning; 0 Severe Errors.\n   ************* EnergyPlus Completed Successfully-- 7096 Warning; 0 Severe Errors; Elapsed Time=00hr 01min 22.40sec\n",
  "file_format_version": "0.0.1",
  "file_paths": [
    "../weather",
    "../seeds",
    "../seed"
  ],
  "hash": "DCB0C69B",
  "measure_paths": [
    "../measures"
  ],
  "name": "DOE Autogenerated 11",
  "osa_id": "63796a5d-cec7-494a-9e67-4109aa458616",
  "osd_id": "efcc4bc4-fef7-410c-90e5-b3ad2ae67a07",
  "run_directory": "./run",
  "seed_file": "dummy.osm",
  "started_at": "20190221T164651Z",
  "steps": [
    {
      "arguments": {
        "building_type": "SmallOffice",
        "epw_file": "CAN_NT_Yellowknife.AP.719360_CWEC2016.epw",
        "new_auto_zoner": false,
        "template": "NECB2017"
      },
      "description": "This measure creates an NECB prototype building from scratch and uses it as the base for an analysis.",
      "measure_dir_name": "btap_create_necb_prototype_building",
      "name": "btap_create_necb_prototype_building",
      "result": {
        "completed_at": "20190221T165016Z",
        "measure_class_name": "BTAPCreateNECBPrototypeBuilding",
        "measure_display_name": "BTAPCreateNECBPrototypeBuilding",
        "measure_name": "btap_create_necb_prototype_building",
        "measure_taxonomy": "Whole Building.Space Types",
        "measure_type": "ModelMeasure",
        "measure_uid": "3e9acd53-8602-4749-a655-7cbbe48e8b30",
        "measure_version_id": "acb70987-933e-468b-b16a-8eb7dd810946",
        "measure_version_modified": "20190220T180311Z",
        "measure_xml_checksum": "2C38F48B",
        "started_at": "20190221T164652Z",
        "stderr": "",
        "stdout": "[OpenStudio.Measure] <0> OSArgumentVector is deprecated, use OpenStudio::Measure::OSArgumentVector instead.\n[openstudio.EpwFile] <0> Successive data points (2009-Jan-31 to 2004-Feb-01, ending on line 753) are greater than 1 day apart in EPW file '/usr/local/lib/ruby/gems/2.2.0/bundler/gems/openstudio-standards-b33bde241549/data/weather/CAN_NT_Yellowknife.AP.719360_CWEC2016.epw'. Data will be treated as typical (TMY)\n[openstudio.setFileExtension] <0> Path p, '/usr/local/lib/ruby/gems/2.2.0/bundler/gems/openstudio-standards-b33bde241549/data/weather/CAN_NT_Yellowknife.AP.719360_CWEC2016.ddy', has an unexpected file extension. Was expecting 'idf'.\n[openstudio.setFileExtension] <0> Path p, '/usr/local/lib/ruby/gems/2.2.0/bundler/gems/openstudio-standards-b33bde241549/data/weather/CAN_NT_Yellowknife.AP.719360_CWEC2016.ddy', has an unexpected file extension. Was expecting 'idf'.\n[openstudio.EpwFile] <0> Successive data points (2009-Jan-31 to 2004-Feb-01, ending on line 753) are greater than 1 day apart in EPW file '/usr/local/lib/ruby/gems/2.2.0/bundler/gems/openstudio-standards-b33bde241549/data/weather/CAN_NT_Yellowknife.AP.719360_CWEC2016.epw'. Data will be treated as typical (TMY)\n[openstudio.setFileExtension] <0> Path p, '/usr/local/lib/ruby/gems/2.2.0/bundler/gems/openstudio-standards-b33bde241549/data/weather/CAN_NT_Yellowknife.AP.719360_CWEC2016.ddy', has an unexpected file extension. Was expecting 'idf'.\n[openstudio.weather.Model] <0> Could not find ground temperatures; will use generic temperatures, which will skew results.\n[openstudio.EpwFile] <0> Successive data points (2009-Jan-31 to 2004-Feb-01, ending on line 753) are greater than 1 day apart in EPW file '/usr/local/lib/ruby/gems/2.2.0/bundler/gems/openstudio-standards-b33bde241549/data/weather/CAN_NT_Yellowknife.AP.719360_CWEC2016.epw'. Data will be treated as typical (TMY)\n[openstudio.setFileExtension] <0> Path p, '/usr/local/lib/ruby/gems/2.2.0/bundler/gems/openstudio-standards-b33bde241549/data/weather/CAN_NT_Yellowknife.AP.719360_CWEC2016.ddy', has an unexpected file extension. Was expecting 'idf'.\n[openstudio.setFileExtension] <0> Path p, '/usr/local/lib/ruby/gems/2.2.0/bundler/gems/openstudio-standards-b33bde241549/data/weather/CAN_NT_Yellowknife.AP.719360_CWEC2016.ddy', has an unexpected file extension. Was expecting 'idf'.\n[openstudio.EpwFile] <0> Successive data points (2009-Jan-31 to 2004-Feb-01, ending on line 753) are greater than 1 day apart in EPW file '/usr/local/lib/ruby/gems/2.2.0/bundler/gems/openstudio-standards-b33bde241549/data/weather/CAN_NT_Yellowknife.AP.719360_CWEC2016.epw'. Data will be treated as typical (TMY)\n[openstudio.setFileExtension] <0> Path p, '/usr/local/lib/ruby/gems/2.2.0/bundler/gems/openstudio-standards-b33bde241549/data/weather/CAN_NT_Yellowknife.AP.719360_CWEC2016.ddy', has an unexpected file extension. Was expecting 'idf'.\n[openstudio.setFileExtension] <0> Path p, '/usr/local/lib/ruby/gems/2.2.0/bundler/gems/openstudio-standards-b33bde241549/data/weather/CAN_NT_Yellowknife.AP.719360_CWEC2016.ddy', has an unexpected file extension. Was expecting 'idf'.\n[utilities.idf.WorkspaceObject] <0> Object of type 'Schedule:Constant' and named 'Always Off Discrete', points to an object named OnOff 1 from field 1, but that object cannot be located.\n[utilities.idf.WorkspaceObject] <0> Object of type 'Schedule:Constant' and named 'Always On Continuous', points to an object named Fractional 1 from field 1, but that object cannot be located.\n[openstudio.EpwFile] <0> Successive data points (2009-Jan-31 to 2004-Feb-01, ending on line 753) are greater than 1 day apart in EPW file '/usr/local/lib/ruby/gems/2.2.0/bundler/gems/openstudio-standards-b33bde241549/data/weather/CAN_NT_Yellowknife.AP.719360_CWEC2016.epw'. Data will be treated as typical (TMY)\n[openstudio.setFileExtension] <0> Path p, '/usr/local/lib/ruby/gems/2.2.0/bundler/gems/openstudio-standards-b33bde241549/data/weather/CAN_NT_Yellowknife.AP.719360_CWEC2016.ddy', has an unexpected file extension. Was expecting 'idf'.\n[openstudio.setFileExtension] <0> Path p, '/usr/local/lib/ruby/gems/2.2.0/bundler/gems/openstudio-standards-b33bde241549/data/weather/CAN_NT_Yellowknife.AP.719360_CWEC2016.ddy', has an unexpected file extension. Was expecting 'idf'.\n[openstudio.EpwFile] <0> Successive data points (2009-Jan-31 to 2004-Feb-01, ending on line 753) are greater than 1 day apart in EPW file '/usr/local/lib/ruby/gems/2.2.0/bundler/gems/openstudio-standards-b33bde241549/data/weather/CAN_NT_Yellowknife.AP.719360_CWEC2016.epw'. Data will be treated as typical (TMY)\n[openstudio.setFileExtension] <0> Path p, '/usr/local/lib/ruby/gems/2.2.0/bundler/gems/openstudio-standards-b33bde241549/data/weather/CAN_NT_Yellowknife.AP.719360_CWEC2016.ddy', has an unexpected file extension. Was expecting 'idf'.\n[openstudio.setFileExtension] <0> Path p, '/usr/local/lib/ruby/gems/2.2.0/bundler/gems/openstudio-standards-b33bde241549/data/weather/CAN_NT_Yellowknife.AP.719360_CWEC2016.ddy', has an unexpected file extension. Was expecting 'idf'.\n[utilities.idf.WorkspaceObject] <0> Object of type 'Schedule:Constant' and named 'Always Off Discrete', points to an object named OnOff 1 from field 1, but that object cannot be located.\n[utilities.idf.WorkspaceObject] <0> Object of type 'Schedule:Constant' and named 'Always On Continuous', points to an object named Fractional 1 from field 1, but that object cannot be located.\n[openstudio.standards.Fan] <0> For Fan Constant Volume 1, there is no greater nominal HP.  Use the efficiency of the largest motor category.\n[openstudio.standards.Fan] <0> For Fan Constant Volume 2, there is no greater nominal HP.  Use the efficiency of the largest motor category.\n[openstudio.standards.Fan] <0> For Fan Constant Volume 3, there is no greater nominal HP.  Use the efficiency of the largest motor category.\n[openstudio.standards.Fan] <0> For Fan Constant Volume 4, there is no greater nominal HP.  Use the efficiency of the largest motor category.\n[openstudio.standards.Fan] <0> For Fan Constant Volume 5, there is no greater nominal HP.  Use the efficiency of the largest motor category.\n[openstudio.EpwFile] <0> Successive data points (2009-Jan-31 to 2004-Feb-01, ending on line 753) are greater than 1 day apart in EPW file '/usr/local/lib/ruby/gems/2.2.0/bundler/gems/openstudio-standards-b33bde241549/data/weather/CAN_NT_Yellowknife.AP.719360_CWEC2016.epw'. Data will be treated as typical (TMY)\n[openstudio.setFileExtension] <0> Path p, '/usr/local/lib/ruby/gems/2.2.0/bundler/gems/openstudio-standards-b33bde241549/data/weather/CAN_NT_Yellowknife.AP.719360_CWEC2016.ddy', has an unexpected file extension. Was expecting 'idf'.\n[openstudio.setFileExtension] <0> Path p, '/usr/local/lib/ruby/gems/2.2.0/bundler/gems/openstudio-standards-b33bde241549/data/weather/CAN_NT_Yellowknife.AP.719360_CWEC2016.ddy', has an unexpected file extension. Was expecting 'idf'.\n[openstudio.EpwFile] <0> Successive data points (2009-Jan-31 to 2004-Feb-01, ending on line 753) are greater than 1 day apart in EPW file '/usr/local/lib/ruby/gems/2.2.0/bundler/gems/openstudio-standards-b33bde241549/data/weather/CAN_NT_Yellowknife.AP.719360_CWEC2016.epw'. Data will be treated as typical (TMY)\n[openstudio.setFileExtension] <0> Path p, '/usr/local/lib/ruby/gems/2.2.0/bundler/gems/openstudio-standards-b33bde241549/data/weather/CAN_NT_Yellowknife.AP.719360_CWEC2016.ddy', has an unexpected file extension. Was expecting 'idf'.\n[openstudio.setFileExtension] <0> Path p, '/usr/local/lib/ruby/gems/2.2.0/bundler/gems/openstudio-standards-b33bde241549/data/weather/CAN_NT_Yellowknife.AP.719360_CWEC2016.ddy', has an unexpected file extension. Was expecting 'idf'.\n[openstudio.EpwFile] <0> Successive data points (2009-Jan-31 to 2004-Feb-01, ending on line 753) are greater than 1 day apart in EPW file '/usr/local/lib/ruby/gems/2.2.0/bundler/gems/openstudio-standards-b33bde241549/data/weather/CAN_NT_Yellowknife.AP.719360_CWEC2016.epw'. Data will be treated as typical (TMY)\n[openstudio.setFileExtension] <0> Path p, '/usr/local/lib/ruby/gems/2.2.0/bundler/gems/openstudio-standards-b33bde241549/data/weather/CAN_NT_Yellowknife.AP.719360_CWEC2016.ddy', has an unexpected file extension. Was expecting 'idf'.\n[openstudio.setFileExtension] <0> Path p, '/usr/local/lib/ruby/gems/2.2.0/bundler/gems/openstudio-standards-b33bde241549/data/weather/CAN_NT_Yellowknife.AP.719360_CWEC2016.ddy', has an unexpected file extension. Was expecting 'idf'.\n[openstudio.EpwFile] <0> Successive data points (2009-Jan-31 to 2004-Feb-01, ending on line 753) are greater than 1 day apart in EPW file '/usr/local/lib/ruby/gems/2.2.0/bundler/gems/openstudio-standards-b33bde241549/data/weather/CAN_NT_Yellowknife.AP.719360_CWEC2016.epw'. Data will be treated as typical (TMY)\n[openstudio.setFileExtension] <0> Path p, '/usr/local/lib/ruby/gems/2.2.0/bundler/gems/openstudio-standards-b33bde241549/data/weather/CAN_NT_Yellowknife.AP.719360_CWEC2016.ddy', has an unexpected file extension. Was expecting 'idf'.\n[openstudio.setFileExtension] <0> Path p, '/usr/local/lib/ruby/gems/2.2.0/bundler/gems/openstudio-standards-b33bde241549/data/weather/CAN_NT_Yellowknife.AP.719360_CWEC2016.ddy', has an unexpected file extension. Was expecting 'idf'.\n[openstudio.EpwFile] <0> Successive data points (2009-Jan-31 to 2004-Feb-01, ending on line 753) are greater than 1 day apart in EPW file '/usr/local/lib/ruby/gems/2.2.0/bundler/gems/openstudio-standards-b33bde241549/data/weather/CAN_NT_Yellowknife.AP.719360_CWEC2016.epw'. Data will be treated as typical (TMY)\n[openstudio.setFileExtension] <0> Path p, '/usr/local/lib/ruby/gems/2.2.0/bundler/gems/openstudio-standards-b33bde241549/data/weather/CAN_NT_Yellowknife.AP.719360_CWEC2016.ddy', has an unexpected file extension. Was expecting 'idf'.\n[openstudio.setFileExtension] <0> Path p, '/usr/local/lib/ruby/gems/2.2.0/bundler/gems/openstudio-standards-b33bde241549/data/weather/CAN_NT_Yellowknife.AP.719360_CWEC2016.ddy', has an unexpected file extension. Was expecting 'idf'.\n[openstudio.standards.Fan] <0> For Fan Constant Volume 1, there is no greater nominal HP.  Use the efficiency of the largest motor category.\n[openstudio.standards.Fan] <0> For Fan Constant Volume 2, there is no greater nominal HP.  Use the efficiency of the largest motor category.\n[openstudio.standards.Fan] <0> For Fan Constant Volume 3, there is no greater nominal HP.  Use the efficiency of the largest motor category.\n[openstudio.standards.Fan] <0> For Fan Constant Volume 4, there is no greater nominal HP.  Use the efficiency of the largest motor category.\n[openstudio.standards.Fan] <0> For Fan Constant Volume 5, there is no greater nominal HP.  Use the efficiency of the largest motor category.\n[utilities.idf.WorkspaceObject] <0> Object of type 'Schedule:Constant' and named 'Always Off Discrete', points to an object named OnOff 1 from field 1, but that object cannot be located.\n[utilities.idf.WorkspaceObject] <0> Object of type 'Schedule:Constant' and named 'Always On Continuous', points to an object named Fractional 1 from field 1, but that object cannot be located.\n",
        "step_errors": [],
        "step_files": [],
        "step_info": [
          "Loaded space type map from model",
          "Finished adding geometry",
          "Started adding weather file for climate zone: NECB HDD Method.",
          "Started applying space types (loads)",
          "Space Function - undefined - had no ventilation specification, one has been created.",
          "Space Function - undefined - had no infiltration objects, one has been created.",
          "Space Function - undefined - set infiltration to 0.0 per ft^2 exterior surface area.",
          "Space Function - undefined - set infiltration schedule to Always On.",
          "Space Function Office enclosed <= 25 m2 had no people, one has been created.",
          "Space Function Office enclosed <= 25 m2 set occupancy to 4.646840148698885 people/1000 ft^2.",
          "Space Function Office enclosed <= 25 m2 had no lights, one has been created.",
          "Space Function Office enclosed <= 25 m2 set LPD to 0.929023 W/ft^2.",
          "Space Function Office enclosed <= 25 m2 had no electric equipment, one has been created.",
          "Space Function Office enclosed <= 25 m2 set electric EPD to 0.6970260223048327 W/ft^2.",
          "Space Function Office enclosed <= 25 m2 had no ventilation specification, one has been created.",
          "Space Function Office enclosed <= 25 m2 set ventilation per area to 0.083 cfm/ft^2.",
          "Space Function Office enclosed <= 25 m2 had no infiltration objects, one has been created.",
          "Space Function Office enclosed <= 25 m2 set infiltration to 0.0 per ft^2 exterior surface area.",
          "Space Function Office enclosed <= 25 m2 set occupancy schedule to NECB-A-Occupancy.",
          "Space Function Office enclosed <= 25 m2 set occupant activity schedule to NECB-Activity.",
          "Space Function Office enclosed <= 25 m2 set lighting schedule to OS:Schedule:Ruleset,\n  {1bef87ce-761f-47da-b114-951d8c1c4289}, !- Handle\n  NECB-A-Occupancy-NECB-A-Lighting-0.3-0.1-0.67-Light Ruleset, !- Name\n  {210a5e9a-1ac6-4e66-8a45-6ffef995360b}, !- Schedule Type Limits Name\n  {83438453-8b3b-451c-9efa-73972a9e0646}; !- Default Day Schedule Name\n\n.",
          "Space Function Office enclosed <= 25 m2 set electric equipment schedule to NECB-A-Electric-Equipment.",
          "Space Function Office enclosed <= 25 m2 set infiltration schedule to Always On.",
          "Space Function Office enclosed <= 25 m2 set heating setpoint schedule to NECB-A-Thermostat Setpoint-Heating.",
          "Space Function Office enclosed <= 25 m2 set cooling setpoint schedule to NECB-A-Thermostat Setpoint-Cooling.",
          "Finished applying space types (loads)",
          "For NECB2017, no exterior wall area was found, no infiltration will be added.",
          "Started applying constructions",
          "Finished applying constructions",
          "Started creating thermal zones",
          "Finished creating thermal zones",
          "This building has no exposed ceilings adjacent to spaces that are not attics or plenums.  No skylights will be added.",
          "Running simulation /mnt/openstudio/analysis_63796a5d-cec7-494a-9e67-4109aa458616/data_point_efcc4bc4-fef7-410c-90e5-b3ad2ae67a07/run/000_btap_create_necb_prototype_building/output/SmallOffice-NECB2017-CAN_NT_Yellowknife.AP.719360_CWEC2016.epw/SR0.",
          "Finished run.",
          "Started Adding HVAC",
          "Finished adding HVAC",
          "Started Adding Service Water Heating",
          "Adding service water loop",
          "Adding water heater",
          "Finished adding Service Water Heating",
          "Set sizing factors to 1.3 for heating and 1.3 for cooling.",
          "Running simulation /mnt/openstudio/analysis_63796a5d-cec7-494a-9e67-4109aa458616/data_point_efcc4bc4-fef7-410c-90e5-b3ad2ae67a07/run/000_btap_create_necb_prototype_building/output/SmallOffice-NECB2017-CAN_NT_Yellowknife.AP.719360_CWEC2016.epw/SR1.",
          "Finished run.",
          "Started applying prototype HVAC assumptions.",
          "For Fan Constant Volume 1: allowed_hp = 1.01HP; motor eff = 61.5%; total fan eff = 40% based on 514 cfm.",
          "For Fan Constant Volume 2: allowed_hp = 1.01HP; motor eff = 61.5%; total fan eff = 40% based on 683 cfm.",
          "For Fan Constant Volume 3: allowed_hp = 1.01HP; motor eff = 61.5%; total fan eff = 40% based on 725 cfm.",
          "For Fan Constant Volume 4: allowed_hp = 1.01HP; motor eff = 61.5%; total fan eff = 40% based on 1007 cfm.",
          "For Fan Constant Volume 5: allowed_hp = 1.01HP; motor eff = 61.5%; total fan eff = 40% based on 577 cfm.",
          "Sys_3_PSZ Sp-Core_ZN Sys-3 Flr-1 Sch-A HPlcmt-core ZN does not require an economizer because the total cooling capacity of 15389 Btu/hr is less than the minimum capacity of 68243 Btu/hr.",
          "Sys_3_PSZ Sp-Perimeter_ZN_1 Sys-3 Flr-1 Sch-A HPlcmt-south ZN does not require an economizer because the total cooling capacity of 26856 Btu/hr is less than the minimum capacity of 68243 Btu/hr.",
          "Sys_3_PSZ Sp-Perimeter_ZN_2 Sys-3 Flr-1 Sch-A HPlcmt-east ZN does not require an economizer because the total cooling capacity of 18196 Btu/hr is less than the minimum capacity of 68243 Btu/hr.",
          "Sys_3_PSZ Sp-Perimeter_ZN_3 Sys-3 Flr-1 Sch-A HPlcmt-north ZN does not require an economizer because the total cooling capacity of 13693 Btu/hr is less than the minimum capacity of 68243 Btu/hr.",
          "Sys_3_PSZ Sp-Perimeter_ZN_4 Sys-3 Flr-1 Sch-A HPlcmt-west ZN does not require an economizer because the total cooling capacity of 19335 Btu/hr is less than the minimum capacity of 68243 Btu/hr.",
          "Finished applying prototype HVAC assumptions.",
          "Started applying HVAC efficiency standards.",
          "For Sys_3_PSZ Sp-Core_ZN Sys-3 Flr-1 Sch-A HPlcmt-core ZN ERV, ERV power is calculated to be 95 W, based on a min OA flow of 134 cfm.",
          "For Sys_3_PSZ Sp-Core_ZN Sys-3 Flr-1 Sch-A HPlcmt-core ZN: No special economizer controls were modeled.",
          "For NECB2017 NECB HDD Method:  Sys_3_PSZ Sp-Core_ZN Sys-3 Flr-1 Sch-A HPlcmt-core ZN: DCV is not required for any system.",
          "For Sys_3_PSZ Sp-Core_ZN Sys-3 Flr-1 Sch-A HPlcmt-core ZN: Unoccupied fan shutoff not required because system fan HP of 0.58 HP is less than the minimum threshold of 0.75 HP.",
          "For Sys_3_PSZ Sp-Core_ZN Sys-3 Flr-1 Sch-A HPlcmt-core ZN: Setting motorized OA damper schedule to Always On Discrete.",
          "For Sys_3_PSZ Sp-Perimeter_ZN_1 Sys-3 Flr-1 Sch-A HPlcmt-south ZN ERV, ERV power is calculated to be 84 W, based on a min OA flow of 101 cfm.",
          "For Sys_3_PSZ Sp-Perimeter_ZN_1 Sys-3 Flr-1 Sch-A HPlcmt-south ZN: No special economizer controls were modeled.",
          "For NECB2017 NECB HDD Method:  Sys_3_PSZ Sp-Perimeter_ZN_1 Sys-3 Flr-1 Sch-A HPlcmt-south ZN: DCV is not required for any system.",
          "For Sys_3_PSZ Sp-Perimeter_ZN_1 Sys-3 Flr-1 Sch-A HPlcmt-south ZN: Annual occupied hours = 2860 hr/yr, assuming a 0.15 occupancy threshold.  This schedule will be used as the HVAC operation schedule.",
          "For Sys_3_PSZ Sp-Perimeter_ZN_1 Sys-3 Flr-1 Sch-A HPlcmt-south ZN: Setting motorized OA damper schedule to Sys_3_PSZ Sp-Perimeter_ZN_1 Sys-3 Flr-1 Sch-A HPlcmt-south ZN Occ Sch.",
          "For Sys_3_PSZ Sp-Perimeter_ZN_2 Sys-3 Flr-1 Sch-A HPlcmt-east ZN ERV, ERV power is calculated to be 70 W, based on a min OA flow of 60 cfm.",
          "For Sys_3_PSZ Sp-Perimeter_ZN_2 Sys-3 Flr-1 Sch-A HPlcmt-east ZN: No special economizer controls were modeled.",
          "For NECB2017 NECB HDD Method:  Sys_3_PSZ Sp-Perimeter_ZN_2 Sys-3 Flr-1 Sch-A HPlcmt-east ZN: DCV is not required for any system.",
          "For Sys_3_PSZ Sp-Perimeter_ZN_2 Sys-3 Flr-1 Sch-A HPlcmt-east ZN: Unoccupied fan shutoff not required because system fan HP of 0.69 HP is less than the minimum threshold of 0.75 HP.",
          "For Sys_3_PSZ Sp-Perimeter_ZN_2 Sys-3 Flr-1 Sch-A HPlcmt-east ZN: Setting motorized OA damper schedule to Always On Discrete.",
          "For Sys_3_PSZ Sp-Perimeter_ZN_3 Sys-3 Flr-1 Sch-A HPlcmt-north ZN ERV, ERV power is calculated to be 84 W, based on a min OA flow of 101 cfm.",
          "For Sys_3_PSZ Sp-Perimeter_ZN_3 Sys-3 Flr-1 Sch-A HPlcmt-north ZN: No special economizer controls were modeled.",
          "For NECB2017 NECB HDD Method:  Sys_3_PSZ Sp-Perimeter_ZN_3 Sys-3 Flr-1 Sch-A HPlcmt-north ZN: DCV is not required for any system.",
          "For Sys_3_PSZ Sp-Perimeter_ZN_3 Sys-3 Flr-1 Sch-A HPlcmt-north ZN: Unoccupied fan shutoff not required because system fan HP of 0.52 HP is less than the minimum threshold of 0.75 HP.",
          "For Sys_3_PSZ Sp-Perimeter_ZN_3 Sys-3 Flr-1 Sch-A HPlcmt-north ZN: Setting motorized OA damper schedule to Always On Discrete.",
          "For Sys_3_PSZ Sp-Perimeter_ZN_4 Sys-3 Flr-1 Sch-A HPlcmt-west ZN ERV, ERV power is calculated to be 70 W, based on a min OA flow of 60 cfm.",
          "For Sys_3_PSZ Sp-Perimeter_ZN_4 Sys-3 Flr-1 Sch-A HPlcmt-west ZN: No special economizer controls were modeled.",
          "For NECB2017 NECB HDD Method:  Sys_3_PSZ Sp-Perimeter_ZN_4 Sys-3 Flr-1 Sch-A HPlcmt-west ZN: DCV is not required for any system.",
          "For Sys_3_PSZ Sp-Perimeter_ZN_4 Sys-3 Flr-1 Sch-A HPlcmt-west ZN: Unoccupied fan shutoff not required because system fan HP of 0.73 HP is less than the minimum threshold of 0.75 HP.",
          "For Sys_3_PSZ Sp-Perimeter_ZN_4 Sys-3 Flr-1 Sch-A HPlcmt-west ZN: Setting motorized OA damper schedule to Always On Discrete.",
          "For Fan Constant Volume 1: motor nameplate = 0.3199770467415435HP, motor eff = 61.5%.",
          "For Fan Constant Volume 2: motor nameplate = 0.42518107518157167HP, motor eff = 61.5%.",
          "For Fan Constant Volume 3: motor nameplate = 0.4518031799185554HP, motor eff = 61.5%.",
          "For Fan Constant Volume 4: motor nameplate = 0.6275646615882612HP, motor eff = 61.5%.",
          "For Fan Constant Volume 5: motor nameplate = 0.35960908497361593HP, motor eff = 61.5%.",
          "For Service Water Loop Pump: brake hp = 0.0HP, motor nameplate = 0.1HP, motor eff = 70.0%.",
          "For Pump Variable Speed 1: brake hp = 0.11HP, motor nameplate = 1.0HP, motor eff = 85.5%.",
          "For NECB2017: Coil Cooling DX Single Speed 1: AirCooled Electric Resistance or None Single Package Capacity = 14kBtu/hr; SEER = 14.0",
          "For NECB2017: Coil Cooling DX Single Speed 2: AirCooled Electric Resistance or None Single Package Capacity = 18kBtu/hr; SEER = 14.0",
          "For NECB2017: Coil Cooling DX Single Speed 3: AirCooled Electric Resistance or None Single Package Capacity = 19kBtu/hr; SEER = 14.0",
          "For NECB2017: Coil Cooling DX Single Speed 4: AirCooled Electric Resistance or None Single Package Capacity = 27kBtu/hr; SEER = 14.0",
          "For NECB2017: Coil Cooling DX Single Speed 5: AirCooled Electric Resistance or None Single Package Capacity = 15kBtu/hr; SEER = 14.0",
          "For NECB2017: Primary Boiler: Oil Hot Water Capacity = 83kBtu/hr; AFUE = 0.847",
          "For NECB2017: Secondary Boiler: Oil Hot Water Capacity = 0kBtu/hr; AFUE = 0.847",
          "For NECB2017: 13gal Electricity Water Heater - 9kBtu/hr 1.0 Therm Eff; thermal efficiency = 1.0, skin-loss UA = 2Btu/hr",
          "For Sys_3_PSZ Sp-Perimeter_ZN_4 Sys-3 Flr-1 Sch-A HPlcmt-west ZN ERV: Set sensible and latent effectiveness to 50%.",
          "For Sys_3_PSZ Sp-Perimeter_ZN_3 Sys-3 Flr-1 Sch-A HPlcmt-north ZN ERV: Set sensible and latent effectiveness to 50%.",
          "For Sys_3_PSZ Sp-Perimeter_ZN_2 Sys-3 Flr-1 Sch-A HPlcmt-east ZN ERV: Set sensible and latent effectiveness to 50%.",
          "For Sys_3_PSZ Sp-Perimeter_ZN_1 Sys-3 Flr-1 Sch-A HPlcmt-south ZN ERV: Set sensible and latent effectiveness to 50%.",
          "For Sys_3_PSZ Sp-Core_ZN Sys-3 Flr-1 Sch-A HPlcmt-core ZN ERV: Set sensible and latent effectiveness to 50%.",
          "Finished applying HVAC efficiency standards.",
          "Started adding daylighting controls.",
          "For Attic, daylighting control not applicable because no exterior fenestration is present.",
          "For Core_ZN, daylighting control not applicable because no exterior fenestration is present.",
          "Finished adding daylighting controls.",
          "Running simulation /mnt/openstudio/analysis_63796a5d-cec7-494a-9e67-4109aa458616/data_point_efcc4bc4-fef7-410c-90e5-b3ad2ae67a07/run/000_btap_create_necb_prototype_building/output/SmallOffice-NECB2017-CAN_NT_Yellowknife.AP.719360_CWEC2016.epw/SR2.",
          "Finished run.",
          "Total Time = 203sec."
        ],
        "step_result": "Success",
        "step_values": [
          {
            "name": "building_type",
            "value": "SmallOffice"
          },
          {
            "name": "template",
            "value": "NECB2017"
          },
          {
            "name": "epw_file",
            "value": "CAN_NT_Yellowknife.AP.719360_CWEC2016.epw"
          },
          {
            "name": "new_auto_zoner",
            "value": false
          }
        ],
        "step_warnings": [
          "[openstudio.EpwFile] Successive data points (2009-Jan-31 to 2004-Feb-01, ending on line 753) are greater than 1 day apart in EPW file '/usr/local/lib/ruby/gems/2.2.0/bundler/gems/openstudio-standards-b33bde241549/data/weather/CAN_NT_Yellowknife.AP.719360_CWEC2016.epw'. Data will be treated as typical (TMY)",
          "[openstudio.EpwFile] Successive data points (2009-Jan-31 to 2004-Feb-01, ending on line 753) are greater than 1 day apart in EPW file '/usr/local/lib/ruby/gems/2.2.0/bundler/gems/openstudio-standards-b33bde241549/data/weather/CAN_NT_Yellowknife.AP.719360_CWEC2016.epw'. Data will be treated as typical (TMY)",
          "[openstudio.weather.Model] Could not find ground temperatures; will use generic temperatures, which will skew results.",
          "[openstudio.EpwFile] Successive data points (2009-Jan-31 to 2004-Feb-01, ending on line 753) are greater than 1 day apart in EPW file '/usr/local/lib/ruby/gems/2.2.0/bundler/gems/openstudio-standards-b33bde241549/data/weather/CAN_NT_Yellowknife.AP.719360_CWEC2016.epw'. Data will be treated as typical (TMY)",
          "[openstudio.EpwFile] Successive data points (2009-Jan-31 to 2004-Feb-01, ending on line 753) are greater than 1 day apart in EPW file '/usr/local/lib/ruby/gems/2.2.0/bundler/gems/openstudio-standards-b33bde241549/data/weather/CAN_NT_Yellowknife.AP.719360_CWEC2016.epw'. Data will be treated as typical (TMY)",
          "[openstudio.EpwFile] Successive data points (2009-Jan-31 to 2004-Feb-01, ending on line 753) are greater than 1 day apart in EPW file '/usr/local/lib/ruby/gems/2.2.0/bundler/gems/openstudio-standards-b33bde241549/data/weather/CAN_NT_Yellowknife.AP.719360_CWEC2016.epw'. Data will be treated as typical (TMY)",
          "[openstudio.EpwFile] Successive data points (2009-Jan-31 to 2004-Feb-01, ending on line 753) are greater than 1 day apart in EPW file '/usr/local/lib/ruby/gems/2.2.0/bundler/gems/openstudio-standards-b33bde241549/data/weather/CAN_NT_Yellowknife.AP.719360_CWEC2016.epw'. Data will be treated as typical (TMY)",
          "[openstudio.standards.Fan] For Fan Constant Volume 1, there is no greater nominal HP.  Use the efficiency of the largest motor category.",
          "[openstudio.standards.Fan] For Fan Constant Volume 2, there is no greater nominal HP.  Use the efficiency of the largest motor category.",
          "[openstudio.standards.Fan] For Fan Constant Volume 3, there is no greater nominal HP.  Use the efficiency of the largest motor category.",
          "[openstudio.standards.Fan] For Fan Constant Volume 4, there is no greater nominal HP.  Use the efficiency of the largest motor category.",
          "[openstudio.standards.Fan] For Fan Constant Volume 5, there is no greater nominal HP.  Use the efficiency of the largest motor category.",
          "[openstudio.EpwFile] Successive data points (2009-Jan-31 to 2004-Feb-01, ending on line 753) are greater than 1 day apart in EPW file '/usr/local/lib/ruby/gems/2.2.0/bundler/gems/openstudio-standards-b33bde241549/data/weather/CAN_NT_Yellowknife.AP.719360_CWEC2016.epw'. Data will be treated as typical (TMY)",
          "[openstudio.EpwFile] Successive data points (2009-Jan-31 to 2004-Feb-01, ending on line 753) are greater than 1 day apart in EPW file '/usr/local/lib/ruby/gems/2.2.0/bundler/gems/openstudio-standards-b33bde241549/data/weather/CAN_NT_Yellowknife.AP.719360_CWEC2016.epw'. Data will be treated as typical (TMY)",
          "[openstudio.EpwFile] Successive data points (2009-Jan-31 to 2004-Feb-01, ending on line 753) are greater than 1 day apart in EPW file '/usr/local/lib/ruby/gems/2.2.0/bundler/gems/openstudio-standards-b33bde241549/data/weather/CAN_NT_Yellowknife.AP.719360_CWEC2016.epw'. Data will be treated as typical (TMY)",
          "[openstudio.EpwFile] Successive data points (2009-Jan-31 to 2004-Feb-01, ending on line 753) are greater than 1 day apart in EPW file '/usr/local/lib/ruby/gems/2.2.0/bundler/gems/openstudio-standards-b33bde241549/data/weather/CAN_NT_Yellowknife.AP.719360_CWEC2016.epw'. Data will be treated as typical (TMY)",
          "[openstudio.EpwFile] Successive data points (2009-Jan-31 to 2004-Feb-01, ending on line 753) are greater than 1 day apart in EPW file '/usr/local/lib/ruby/gems/2.2.0/bundler/gems/openstudio-standards-b33bde241549/data/weather/CAN_NT_Yellowknife.AP.719360_CWEC2016.epw'. Data will be treated as typical (TMY)",
          "[openstudio.standards.Fan] For Fan Constant Volume 1, there is no greater nominal HP.  Use the efficiency of the largest motor category.",
          "[openstudio.standards.Fan] For Fan Constant Volume 2, there is no greater nominal HP.  Use the efficiency of the largest motor category.",
          "[openstudio.standards.Fan] For Fan Constant Volume 3, there is no greater nominal HP.  Use the efficiency of the largest motor category.",
          "[openstudio.standards.Fan] For Fan Constant Volume 4, there is no greater nominal HP.  Use the efficiency of the largest motor category.",
          "[openstudio.standards.Fan] For Fan Constant Volume 5, there is no greater nominal HP.  Use the efficiency of the largest motor category."
        ]
      }
    },
    {
      "arguments": {
        "necb_template": "NECB2017",
        "surface_type": "Walls",
        "zone4_u_value": 0.29,
        "zone5_u_value": 0.265,
        "zone6_u_value": 0.24,
        "zone7A_u_value": 0.215,
        "zone7B_u_value": 0.19,
        "zone8_u_value": 0.165
      },
      "description": "Modifies walls, roofs, and windows conductance by climate zone.",
      "measure_dir_name": "btap_set_envelope_conductance_by_necb_climate_zone",
      "name": "btap_set_envelope_conductance_by_necb_climate_zone",
      "result": {
        "completed_at": "20190221T165020Z",
        "measure_class_name": "BtapSetEnvelopeConductanceByNecbClimateZone",
        "measure_display_name": "BTAPSetEnvelopeConductanceByNecbClimateZone",
        "measure_name": "btap_set_envelope_conductance_by_necb_climate_zone",
        "measure_taxonomy": "Envelope.Opaque",
        "measure_type": "ModelMeasure",
        "measure_uid": "36fd01e8-5fcf-4fec-9117-90bf8d4071fc",
        "measure_version_id": "640ec217-f62b-42fb-ab95-8ed4a5972bba",
        "measure_version_modified": "20190214T214035Z",
        "measure_xml_checksum": "A51D361F",
        "started_at": "20190221T165016Z",
        "stderr": "",
        "stdout": "[openstudio.EpwFile] <0> Successive data points (2009-Jan-31 to 2004-Feb-01, ending on line 753) are greater than 1 day apart in EPW file '/usr/local/lib/ruby/gems/2.2.0/bundler/gems/openstudio-standards-b33bde241549/data/weather/CAN_NT_Yellowknife.AP.719360_CWEC2016.epw'. Data will be treated as typical (TMY)\n[openstudio.setFileExtension] <0> Path p, '/usr/local/lib/ruby/gems/2.2.0/bundler/gems/openstudio-standards-b33bde241549/data/weather/CAN_NT_Yellowknife.AP.719360_CWEC2016.ddy', has an unexpected file extension. Was expecting 'idf'.\n[openstudio.setFileExtension] <0> Path p, '/usr/local/lib/ruby/gems/2.2.0/bundler/gems/openstudio-standards-b33bde241549/data/weather/CAN_NT_Yellowknife.AP.719360_CWEC2016.ddy', has an unexpected file extension. Was expecting 'idf'.\n",
        "step_errors": [],
        "step_files": [],
        "step_info": [
          "The Weather File NECB hdd is '8170.0'.",
          "The selected surface type is 'Walls' So the conductance of walls only will be changed.",
          "Initial conductance for Wall was : 0.18299999999999986 , now it has been changed to 0.16499999999999987 ",
          "Initial conductance for Wall was : 0.18299999999999986 , now it has been changed to 0.16499999999999987 ",
          "Initial conductance for Wall was : 0.18299999999999986 , now it has been changed to 0.16499999999999987 ",
          "Initial conductance for Wall was : 0.18299999999999986 , now it has been changed to 0.16499999999999987 "
        ],
        "step_result": "Success",
        "step_values": [
          {
            "name": "necb_template",
            "value": "NECB2017"
          },
          {
            "name": "surface_type",
            "value": "Walls"
          },
          {
            "name": "zone4_u_value",
            "value": 0.29
          },
          {
            "name": "zone5_u_value",
            "value": 0.265
          },
          {
            "name": "zone6_u_value",
            "value": 0.24
          },
          {
            "name": "zone7A_u_value",
            "value": 0.215
          },
          {
            "name": "zone7B_u_value",
            "value": 0.19
          },
          {
            "name": "zone8_u_value",
            "value": 0.165
          },
          {
            "name": "necb_template",
            "value": "NECB2017"
          },
          {
            "name": "surface_type",
            "value": "Walls"
          },
          {
            "name": "zone4_u_value",
            "value": 0.29
          },
          {
            "name": "zone5_u_value",
            "value": 0.265
          },
          {
            "name": "zone6_u_value",
            "value": 0.24
          },
          {
            "name": "zone7A_u_value",
            "value": 0.215
          },
          {
            "name": "zone7B_u_value",
            "value": 0.19
          },
          {
            "name": "zone8_u_value",
            "value": 0.165
          }
        ],
        "step_warnings": []
      }
    },
    {
      "arguments": {
        "necb_template": "NECB2017",
        "surface_type": "Roofs",
        "zone4_u_value": 0.164,
        "zone5_u_value": 0.156,
        "zone6_u_value": 0.138,
        "zone7A_u_value": 0.121,
        "zone7B_u_value": 0.117,
        "zone8_u_value": 0.11
      },
      "description": "Modifies walls, roofs, and windows conductance by climate zone.",
      "measure_dir_name": "btap_set_envelope_conductance_by_necb_climate_zone",
      "name": "btap_set_envelope_conductance_by_necb_climate_zone_2",
      "result": {
        "completed_at": "20190221T165025Z",
        "measure_class_name": "BtapSetEnvelopeConductanceByNecbClimateZone",
        "measure_display_name": "BTAPSetEnvelopeConductanceByNecbClimateZone",
        "measure_name": "btap_set_envelope_conductance_by_necb_climate_zone",
        "measure_taxonomy": "Envelope.Opaque",
        "measure_type": "ModelMeasure",
        "measure_uid": "36fd01e8-5fcf-4fec-9117-90bf8d4071fc",
        "measure_version_id": "640ec217-f62b-42fb-ab95-8ed4a5972bba",
        "measure_version_modified": "20190214T214035Z",
        "measure_xml_checksum": "A51D361F",
        "started_at": "20190221T165020Z",
        "stderr": "",
        "stdout": "[openstudio.EpwFile] <0> Successive data points (2009-Jan-31 to 2004-Feb-01, ending on line 753) are greater than 1 day apart in EPW file '/usr/local/lib/ruby/gems/2.2.0/bundler/gems/openstudio-standards-b33bde241549/data/weather/CAN_NT_Yellowknife.AP.719360_CWEC2016.epw'. Data will be treated as typical (TMY)\n[openstudio.setFileExtension] <0> Path p, '/usr/local/lib/ruby/gems/2.2.0/bundler/gems/openstudio-standards-b33bde241549/data/weather/CAN_NT_Yellowknife.AP.719360_CWEC2016.ddy', has an unexpected file extension. Was expecting 'idf'.\n[openstudio.setFileExtension] <0> Path p, '/usr/local/lib/ruby/gems/2.2.0/bundler/gems/openstudio-standards-b33bde241549/data/weather/CAN_NT_Yellowknife.AP.719360_CWEC2016.ddy', has an unexpected file extension. Was expecting 'idf'.\n",
        "step_errors": [],
        "step_files": [],
        "step_info": [
          "The Weather File NECB hdd is '8170.0'.",
          "The selected surface type is 'Roofs' So the conductance of roofs only will be changed.to 0.11 ............. ",
          "Initial conductance for RoofCeiling was : 0.12100000000000004 , now it has been changed to 0.10999999999999999 ",
          "Initial conductance for RoofCeiling was : 0.12100000000000004 , now it has been changed to 0.10999999999999999 ",
          "Initial conductance for RoofCeiling was : 0.12100000000000004 , now it has been changed to 0.10999999999999999 ",
          "Initial conductance for RoofCeiling was : 0.12100000000000004 , now it has been changed to 0.10999999999999999 "
        ],
        "step_result": "Success",
        "step_values": [
          {
            "name": "necb_template",
            "value": "NECB2017"
          },
          {
            "name": "surface_type",
            "value": "Roofs"
          },
          {
            "name": "zone4_u_value",
            "value": 0.164
          },
          {
            "name": "zone5_u_value",
            "value": 0.156
          },
          {
            "name": "zone6_u_value",
            "value": 0.138
          },
          {
            "name": "zone7A_u_value",
            "value": 0.121
          },
          {
            "name": "zone7B_u_value",
            "value": 0.117
          },
          {
            "name": "zone8_u_value",
            "value": 0.11
          },
          {
            "name": "necb_template",
            "value": "NECB2017"
          },
          {
            "name": "surface_type",
            "value": "Roofs"
          },
          {
            "name": "zone4_u_value",
            "value": 0.164
          },
          {
            "name": "zone5_u_value",
            "value": 0.156
          },
          {
            "name": "zone6_u_value",
            "value": 0.138
          },
          {
            "name": "zone7A_u_value",
            "value": 0.121
          },
          {
            "name": "zone7B_u_value",
            "value": 0.117
          },
          {
            "name": "zone8_u_value",
            "value": 0.11
          }
        ],
        "step_warnings": []
      }
    },
    {
      "arguments": {
        "necb_template": "NECB2017",
        "surface_type": "Floors",
        "zone4_u_value": 0.193,
        "zone5_u_value": 0.175,
        "zone6_u_value": 0.156,
        "zone7A_u_value": 0.138,
        "zone7B_u_value": 0.121,
        "zone8_u_value": 0.117
      },
      "description": "Modifies walls, roofs, and windows conductance by climate zone.",
      "measure_dir_name": "btap_set_envelope_conductance_by_necb_climate_zone",
      "name": "btap_set_envelope_conductance_by_necb_climate_zone_2_2",
      "result": {
        "completed_at": "20190221T165030Z",
        "measure_class_name": "BtapSetEnvelopeConductanceByNecbClimateZone",
        "measure_display_name": "BTAPSetEnvelopeConductanceByNecbClimateZone",
        "measure_name": "btap_set_envelope_conductance_by_necb_climate_zone",
        "measure_taxonomy": "Envelope.Opaque",
        "measure_type": "ModelMeasure",
        "measure_uid": "36fd01e8-5fcf-4fec-9117-90bf8d4071fc",
        "measure_version_id": "640ec217-f62b-42fb-ab95-8ed4a5972bba",
        "measure_version_modified": "20190214T214035Z",
        "measure_xml_checksum": "A51D361F",
        "started_at": "20190221T165025Z",
        "stderr": "",
        "stdout": "[openstudio.EpwFile] <0> Successive data points (2009-Jan-31 to 2004-Feb-01, ending on line 753) are greater than 1 day apart in EPW file '/usr/local/lib/ruby/gems/2.2.0/bundler/gems/openstudio-standards-b33bde241549/data/weather/CAN_NT_Yellowknife.AP.719360_CWEC2016.epw'. Data will be treated as typical (TMY)\n[openstudio.setFileExtension] <0> Path p, '/usr/local/lib/ruby/gems/2.2.0/bundler/gems/openstudio-standards-b33bde241549/data/weather/CAN_NT_Yellowknife.AP.719360_CWEC2016.ddy', has an unexpected file extension. Was expecting 'idf'.\n[openstudio.setFileExtension] <0> Path p, '/usr/local/lib/ruby/gems/2.2.0/bundler/gems/openstudio-standards-b33bde241549/data/weather/CAN_NT_Yellowknife.AP.719360_CWEC2016.ddy', has an unexpected file extension. Was expecting 'idf'.\n",
        "step_errors": [],
        "step_files": [],
        "step_info": [
          "The Weather File NECB hdd is '8170.0'.",
          "The selected surface type is 'Floors' So the conductance of floors only will be changed.",
          "Initial conductance for Floor was : 0.14200000000000002 , now it has been changed to 0.11699999999999995 ",
          "Initial conductance for Floor was : 0.14200000000000002 , now it has been changed to 0.11699999999999995 ",
          "Initial conductance for Floor was : 0.14200000000000002 , now it has been changed to 0.11699999999999995 ",
          "Initial conductance for Floor was : 0.14200000000000002 , now it has been changed to 0.11699999999999995 "
        ],
        "step_result": "Success",
        "step_values": [
          {
            "name": "necb_template",
            "value": "NECB2017"
          },
          {
            "name": "surface_type",
            "value": "Floors"
          },
          {
            "name": "zone4_u_value",
            "value": 0.193
          },
          {
            "name": "zone5_u_value",
            "value": 0.175
          },
          {
            "name": "zone6_u_value",
            "value": 0.156
          },
          {
            "name": "zone7A_u_value",
            "value": 0.138
          },
          {
            "name": "zone7B_u_value",
            "value": 0.121
          },
          {
            "name": "zone8_u_value",
            "value": 0.117
          },
          {
            "name": "necb_template",
            "value": "NECB2017"
          },
          {
            "name": "surface_type",
            "value": "Floors"
          },
          {
            "name": "zone4_u_value",
            "value": 0.193
          },
          {
            "name": "zone5_u_value",
            "value": 0.175
          },
          {
            "name": "zone6_u_value",
            "value": 0.156
          },
          {
            "name": "zone7A_u_value",
            "value": 0.138
          },
          {
            "name": "zone7B_u_value",
            "value": 0.121
          },
          {
            "name": "zone8_u_value",
            "value": 0.117
          }
        ],
        "step_warnings": []
      }
    },
    {
      "arguments": {
        "necb_template": "NECB2017",
        "surface_type": "Glazing",
        "zone4_u_value": 1.9,
        "zone5_u_value": 1.8,
        "zone6_u_value": 1.7,
        "zone7A_u_value": 1.5,
        "zone7B_u_value": 1.4,
        "zone8_u_value": 1.3
      },
      "description": "Modifies walls, roofs, and windows conductance by climate zone.",
      "measure_dir_name": "btap_set_envelope_conductance_by_necb_climate_zone",
      "name": "btap_set_envelope_conductance_by_necb_climate_zone_2_2_2",
      "result": {
        "completed_at": "20190221T165034Z",
        "measure_class_name": "BtapSetEnvelopeConductanceByNecbClimateZone",
        "measure_display_name": "BTAPSetEnvelopeConductanceByNecbClimateZone",
        "measure_name": "btap_set_envelope_conductance_by_necb_climate_zone",
        "measure_taxonomy": "Envelope.Opaque",
        "measure_type": "ModelMeasure",
        "measure_uid": "36fd01e8-5fcf-4fec-9117-90bf8d4071fc",
        "measure_version_id": "640ec217-f62b-42fb-ab95-8ed4a5972bba",
        "measure_version_modified": "20190214T214035Z",
        "measure_xml_checksum": "A51D361F",
        "started_at": "20190221T165030Z",
        "stderr": "",
        "stdout": "[openstudio.EpwFile] <0> Successive data points (2009-Jan-31 to 2004-Feb-01, ending on line 753) are greater than 1 day apart in EPW file '/usr/local/lib/ruby/gems/2.2.0/bundler/gems/openstudio-standards-b33bde241549/data/weather/CAN_NT_Yellowknife.AP.719360_CWEC2016.epw'. Data will be treated as typical (TMY)\n[openstudio.setFileExtension] <0> Path p, '/usr/local/lib/ruby/gems/2.2.0/bundler/gems/openstudio-standards-b33bde241549/data/weather/CAN_NT_Yellowknife.AP.719360_CWEC2016.ddy', has an unexpected file extension. Was expecting 'idf'.\n[openstudio.setFileExtension] <0> Path p, '/usr/local/lib/ruby/gems/2.2.0/bundler/gems/openstudio-standards-b33bde241549/data/weather/CAN_NT_Yellowknife.AP.719360_CWEC2016.ddy', has an unexpected file extension. Was expecting 'idf'.\n",
        "step_errors": [],
        "step_files": [],
        "step_info": [
          "The Weather File NECB hdd is '8170.0'.",
          "Initial conductance for FixedWindow was : 1.4 , now it has been changed to 1.3 ",
          "Initial conductance for FixedWindow was : 1.4 , now it has been changed to 1.3 ",
          "Initial conductance for FixedWindow was : 1.4 , now it has been changed to 1.3 ",
          "Initial conductance for FixedWindow was : 1.4 , now it has been changed to 1.3 "
        ],
        "step_result": "Success",
        "step_values": [
          {
            "name": "necb_template",
            "value": "NECB2017"
          },
          {
            "name": "surface_type",
            "value": "Glazing"
          },
          {
            "name": "zone4_u_value",
            "value": 1.9
          },
          {
            "name": "zone5_u_value",
            "value": 1.8
          },
          {
            "name": "zone6_u_value",
            "value": 1.7
          },
          {
            "name": "zone7A_u_value",
            "value": 1.5
          },
          {
            "name": "zone7B_u_value",
            "value": 1.4
          },
          {
            "name": "zone8_u_value",
            "value": 1.3
          },
          {
            "name": "necb_template",
            "value": "NECB2017"
          },
          {
            "name": "surface_type",
            "value": "Glazing"
          },
          {
            "name": "zone4_u_value",
            "value": 1.9
          },
          {
            "name": "zone5_u_value",
            "value": 1.8
          },
          {
            "name": "zone6_u_value",
            "value": 1.7
          },
          {
            "name": "zone7A_u_value",
            "value": 1.5
          },
          {
            "name": "zone7B_u_value",
            "value": 1.4
          },
          {
            "name": "zone8_u_value",
            "value": 1.3
          }
        ],
        "step_warnings": []
      }
    },
    {
      "arguments": {
        "generate_hourly_report": "false",
        "output_diet": false
      },
      "description": "This measure creates BTAP result values used for NRCan analyses.",
      "measure_dir_name": "btap_results",
      "name": "btap_results",
      "result": {
        "completed_at": "20190221T165244Z",
        "measure_class_name": "BTAPResults",
        "measure_display_name": "BTAP Results",
        "measure_name": "btap_results",
        "measure_taxonomy": "Reporting.QAQC",
        "measure_type": "ReportingMeasure",
        "measure_uid": "bf37e1c6-de70-457b-a3ac-21aa57b7bc58",
        "measure_version_id": "86fb174b-6040-4a41-8cbe-ab3d1551296a",
        "measure_version_modified": "20181219T170133Z",
        "measure_xml_checksum": "15BF4E57",
        "started_at": "20190221T165206Z",
        "stderr": "",
        "stdout": "[openstudio.EpwFile] <0> Successive data points (2009-Jan-31 to 2004-Feb-01, ending on line 753) are greater than 1 day apart in EPW file '/usr/local/lib/ruby/gems/2.2.0/bundler/gems/openstudio-standards-b33bde241549/data/weather/CAN_NT_Yellowknife.AP.719360_CWEC2016.epw'. Data will be treated as typical (TMY)\n[openstudio.setFileExtension] <0> Path p, '/usr/local/lib/ruby/gems/2.2.0/bundler/gems/openstudio-standards-b33bde241549/data/weather/CAN_NT_Yellowknife.AP.719360_CWEC2016.ddy', has an unexpected file extension. Was expecting 'idf'.\n[openstudio.setFileExtension] <0> Path p, '/usr/local/lib/ruby/gems/2.2.0/bundler/gems/openstudio-standards-b33bde241549/data/weather/CAN_NT_Yellowknife.AP.719360_CWEC2016.ddy', has an unexpected file extension. Was expecting 'idf'.\n[openstudio.EpwFile] <0> Successive data points (2009-Jan-31 to 2004-Feb-01, ending on line 753) are greater than 1 day apart in EPW file '/usr/local/lib/ruby/gems/2.2.0/bundler/gems/openstudio-standards-b33bde241549/data/weather/CAN_NT_Yellowknife.AP.719360_CWEC2016.epw'. Data will be treated as typical (TMY)\n[openstudio.setFileExtension] <0> Path p, '/usr/local/lib/ruby/gems/2.2.0/bundler/gems/openstudio-standards-b33bde241549/data/weather/CAN_NT_Yellowknife.AP.719360_CWEC2016.ddy', has an unexpected file extension. Was expecting 'idf'.\n[openstudio.setFileExtension] <0> Path p, '/usr/local/lib/ruby/gems/2.2.0/bundler/gems/openstudio-standards-b33bde241549/data/weather/CAN_NT_Yellowknife.AP.719360_CWEC2016.ddy', has an unexpected file extension. Was expecting 'idf'.\n",
        "step_errors": [],
        "step_files": [
          "/mnt/openstudio/analysis_63796a5d-cec7-494a-9e67-4109aa458616/data_point_efcc4bc4-fef7-410c-90e5-b3ad2ae67a07/run/005_btap_results/qaqc.json"
        ],
        "step_final_condition": "Saved BTAP results to runner.",
        "step_info": [],
        "step_initial_condition": "Gathering data from EnergyPlus SQL file and OSM model.",
        "step_result": "Success",
        "step_values": [
          {
            "name": "model_osm_zip",
[...]
          },
          {
            "name": "btap_results_json_zip",
            "value": "eJztPWlz2ziy3/MrUNovO/UihgRvvclWKbIcu9bXs+yZyUxSKkqCLG4oUsvDjmYq//11g7dE6rLsKBM7FcsiG0Df3WiA4F+vCGl4QT8ILXdk+aOg77N7O7A9t9EijYEsD0aMNl4vQd0zPwUSBSrICciMuUEYjWyvCEAFTRAFY2hIY2tsDIYxLHOZfzefOVGpM0MwBTEGGFkh481FyWyKtEklImktlbZkg/yPCD8x2CCynZHt3gHoX/AdrrjWlDfsTS3HuRyP7SFrdtoX/Yub/gfmON7DZ9ceM6F9JeiSKWtiv/NrtwOjaAKbPZChz2DgUYuUx1Vg6OK4MM7Qc0d2CIizUX/seJ7ft6Btf0phcFWSBEnVFTH5kZI27EvIfLsEasq6IJqaZkiSbhqKqSag954TcUKorOqCoiiipEoKNVRdSyDcaDpgft8bg2A832YBAif3clFVQUkroKyBd8/6d74XuaMNmzj2PUigH7l2iKBu5Dgpit7Udi0n4U/o9YfMdhB2wuy7SbgGOP6jBAqQX7nc75h351uzyTwX/GQ0gi+GpIuCmMqIX1Ll/IJjT0G+/T9BbFzhMmnaIXbVKKgIaV81cqqh0cz3gNAhAyO5SxT24iZXh8gNfd4HaFt61bFCGywCx9KooGhyet1z79IbTUlSQMAZacHMGrJwPmOxlgzg1+eR9+DmlHKI/jhyh6h//SawfsTGNmpiE6BSYhfAPG4LfeYOHS8A0J/f9qla1tcMBwbaDeIYBvmgoReCcFw26A+9AOUhGaIqCaYup0pXhujPQDt477IqyJJq6KYGig4KbCTwXYcNQ99G1pf61Q2qCIam0xVwhd4BVofuqUglVdQUQ0maXVhh5FsOeW8Fxe5z7agCyPvN4S7tEt2U6oIkahU3i43BYqmpqwboo0lNTU2xYgViljBavFmFjRtj3b8DrJc6WLxZ1YE1iv0WgC21X7hX1TyW8lLL/HKpUa5R4E6igBUUagKeFn3B3X/QDWoCNTJT8pzsBtgGTa3GdhP36aBLyEBAC6UUJPOwZRBxsQf238ieTZkb5l0sOekFmLSPseUG8RXNELRUSWfRdJZcFgXNfJ3TCO7iPyw2wVI/k2hqj2ywSaviXtxuCL7YnyeMEMHWktsP4I78fjAPQjZNBkWl1Cpvx9+mMu8D4mvKKp+NffuO+RXD32F4tsD5B+XrsZBTUcb3ZAopQPX9pZGXtKHPIrtKI4o6JBmGrILfUBQNAqqm6ktqUtI4qhuyAf8lSmVD1LKAWqU8pWEgTkNbU1d0WVFNukqjCu1WKVYJL9M0DUPXRfBUVKLiUvc1DctKV0JYVqiiyJpsaKYky6K6oIml0UWANmF4XTFEaoBn0us0dHnsJUWtAFnQ17JEJEUD+WN2Ixq6qqs1WlxqpMqAsSyBHGXNlFVjpWoXW1LkhUgVXZMV0VQ0rUbdl4koaf3y7SXlL46qUU2B+EMNiFsaVbTVBrES38xIpgyhZxD+C14zDRH9B7imiLqhgoFUeP8Hnp60G1lvkQv99Sde5Bd6S2wIzVgSisKML4KS6Xlewvx7TCBiInKgcn6QJHHecBjNLHeICRFVBVVHTGWTaqYmp/IvRjtkyJxZ/oInWwQZWfNYPXRFFk1JU1WqaXqeUlTA888EnSRkidQUNVGClFuGlMw0JLWCgQWMKuPjOGJONVBJysndkuctAaQkUdOQRa7ruqhAqq/UAFfQI0maphoimJiIfs+kBT97zxyYl+Vi8qJwhGn1A8yOgsI8hIKUqCSZ2U+KbNrA97xxsYFqGoKuSdnERVuA59l7qYEmGIX+0xCZTDUW8RHLtxdHX7i9PFiS0S6651rAdKqWudEH24Wse4EAkFAGKKZKF3ye89hQhd9oYbj0OjpKMKFRvw4g8RzLE0bQDEOgqiKmjNdLLRKG1HIihkqFVD8PXRRnIh9A27pjfZz8RkOYC6I/SLxZ/3PsMTS1WnM2aCrV6NAmTfVqjVjfVNbNRZGvayQJqXWk9YecoxvgaoJ5iypMh1RDNvNMI+srleE2uGeNN2hFNVGUZWqAu1FEqmYIjEcP3AHnrizwy64NOg1CP+K5Qh5GimnMGIIogPAoCwB/JAAkA00cbVykeXfTvmp2v4TNIyu2oSN7PIZQ6bdu3wKjFJH0Tt534E/AuNn6i3zkZZePjbf/AhF8TWbZaZ8Q3srGWrodTpg/5VOUnC/AkZg1JaEmDQLPsfw+kOIGUzvkDeJQX4LCctnAYRyuBEalDOxr8ten10vs8mbWfyO2BaOOUa+b51YQtG6byCJa5gs3hXWcMeh2rCnYV4k51iDw/FlOs56T/HpDeq7BOTTPGTilmB4qmsUfY5m61cTxqLQ9dU9D3K/gNAuyMuQlajR1JTlxVN6anNQFr6SHpwkJQUsKGrugDfXyve+OFhUTPNNKOWFU2lpOmbvbVFApXa8KYmukHnLtgCntOeUZ3e0wtIcFAhvTyAntmWMznu0VbmSFXAirgiLJppLUcQs2mPsDDLOcTUW3G9PKq3m8LpiVuPESOU4KfKRJsjogaRZxSwlNq569WZPjT3rzoCmSY8dvUtIbTpqlHsjJlTOchs2h5zPy+0WxQ6xJhhOMNthlHvtsH8LuQ/9+8GcD65qFFrY7tp0kLPRhIjLxULkaoDQPb7oJ8W0ku64N77g0oxVpwV83sglHPxhO2ChykNK8usxheCp9G7BuOtXmMs7uf0r+ysy7Qu4dYEa/zIz1klfA5SqqKupp5ijvW/TxOgdJa7vk57cw6yJTukYLEmq4HshcDySuB+3Hyh7w1+QN5H/xpr2hxJtSiSWV4m5cdDvvmu3mZTb5LLcoFxgK97LSTmFAqSyDfN6dg+iCWhJlMHlIJ2rBkhCrlY9kP0X3ilUcmPbHLPDjlTAZJtGaYSqmrMgwl1ZYUyz5z6U2HI9En6ggmzC1AR00dVHGiho0NxaaI/qAZRjPfeF/wFO4Jq5OaDL80yBjBN+lFJp93cp6rkDT46rG7xd9aTsjgqm6IFKqLMwfY+FU2ZABeKuK+hx2VKar3pwCsJbJjvak6MZT+1P1hzYwKuiSpMLsF0uUBtUeZWD0EQYm0f0YGN3OwKgIuaam5vUNaZ2FxQWRZzcwWm9gzArCHe2LpguHvNWLfe3dviSYxBuQBMkqaLlIHxXAdFPZ3b5EfT/2Je8UwHIDU9bZ17eKYHK9gbme/xLBDtXCFiKY/hgLM0XtESmisR8LU/6mEUypN7AH9hLBDtW+vpsI9ir9VthRFmTEZkX76mJWjaFtUMhaW8vYuYi15xLWtgWs7Y1pi+LV+tLV6sJVqbi5JNvFgtVa6dYXq/Yh3rXecy9lql2KVJuUqDYtUG3rG+s941q/uN4rrvCJazxiqeK/dUHqUeWoHYpRlcX+JXuoKUGtNYva8tNGqftTWcbOhaddkvan8ILqD2Uy60pMjyow7VBe2sFk6OYmU5+Ob5KMP4vJbFFK2iUNf7GYx1rMupT7UQn3Dun2DhYjbx1kKkpEhxNltikOvUSZA4gyS2WgRxWBdigB7WAzyt8qymxR7nmJMi9RZsliXiU7s0qKtqKe88jiSP40KzcXXTB1XV6e99QYph30C4/Gcl3xGsW79ogBCaDQfcezRkjG2HICloGkTwEF9p/4MbaGoecvTrDTh39WAnELSrsbscC+c/tBNJs5cz58yKYzfOAj8nndQ1xsmY6xrqWkLJZAgnrdq9tAhtKdz9ZXxJZ1JDef7atDOxVXSvohKaagFffP0+0V5AMwbB8aUtjBW6sgkiDtqB/yzvoh76AfyxvN6jWkNkJtrCyrVdX2yQ04Hnywh/SAYoeRo2gYklsXBBn6nuPAoGoNqhBl0O93vOkMmAbj5Ui9Xj3u7wBPTn5pd8g7K2ADz/JHpOO59/io2j0jv6LDrxsW22LTqmE3tYzdiytlCwH5K0pxU/OLhezDQmo3kx24oSjfxlBqht27oWxTUinZCSQahYerinn8i5nsy0zo92Mmdag+sZnUDLt3M9mqjLIcTwrz3ZeM6wkMRf5+DKUu9D2xodQMu3dD2aZ48hJPntlM6nKZAzSTOot+YjOpGXZzM3mVFn9itfNmqwo/86Av9696v5OdJvbV5SV+a5v+lmQZP3NeOCQNj5LgFraiehA32mUjBx+iABnX7NKyYaHKqdB8uCL8WVZg1GRBUlWAMxZ9SGJUYys/l6sk4M4vxZ1vqYCOLRdVBE9RC8kvvIRdmsHiOS99huZis/jwDFGQTVMv7pSbeiEeF1MG0qQiyMxnQQA23vftAMfVisUt7ML6wgnNK5qloiotPOvbwNujflaanXkPAMcPH5EVQU3Xkr/mhhsfHfYnd66VT9AlJumTy5jnBA24xIXEbPspMy+8bt7r0oipuxt6thOUBx19AT+LDqEfzBgrP8+6tN8vx9B2QEq8U3L0W+pSetgDUYmkfn4XRm8mPi/89brd65KJc4RmDdwfY1BlcYNfej5KclyWBY4Szyrh/FRMKuhqAb6ws+91iabwwSsQVAmFzMgCAa+NN1Y/7JgFrwo28s6y05msYM2wKWSqNFuw/SRuStIz3xbqOwUDSyEW76ccTnnLM2aFqoJes2myDvuNmdZnX4YTy70rafzX1UlO0VHvXmda7bC37ncbx11f1NrOcRdXfvfouBVdMHTVfAJ3rRycuy46mXp3rWswrLqkwDu6a+U7cdcKofrTuGvd0BRBr3kW9od118o+3LUqA2vlmmdIDstdb1Pt3MJbb9DtFs66fia8na8u7jnYo6+mhoAHO+b4KU/gtunBuW2ZbuK2VUkD3Pbltul34rYpkYyncduqLJsClV/cdslt0324bVGiJkyXvwe3vVX1fQu/vUm/22bZ1aX+Q8qyKwLL/hy3dHCOmyqbOG7ZgKir7ctxS9+J45bAXT9ReUQU1U28y4/luKU9OG5TVRWB1hw6clh+e5vFoC3c9gbdvqTbW3lt+eC8tryR11YVTTDlJUXe0WvL34nXlolkPlG6rYFvMddP5X8sry3vJd3WREVQ189k9u+2X6VLkjMHTH7douSJFyZroWcAmPvnZHUaW8NgdriwOG3QwuI0B0oaFMD6I3s8Zj6LT/6EmXLegr8FoSSj6tVsACO/WL5tDfIcpnrJFkFbKSiHLMPx47xnfIeObsoqLTonkp7jzp1T+QkGUZSV8hGvFX5JEmn2rpEEquAyM49pqHmCtLymPgBNYP4mXIHYaPlz8o43IIacOgcYQdFJ+/i2W82juEELRM4lXgbCE/NTwGP4+9J2/rGw3apCz6kii4aAr9GRqa4VZu7rlud76LRHBTLEb0gFfwXHCtEMJzZGjzwkMbtkpp+WAkPIdWMpECzB569rwEdq7C8LcCsTsXPLdkkvfu/DLjasidvasLq9CS/jR9BUVxhxmqysNGJFEkRpAwuWBMqaxaNsqg1YXHAHVdZb8QBQpe1+e+1ZKRBJvrOcLNiB/ieiOeG9kCbJcw1BJDeYppPueFwtMN40btk65+MvygsxS3P9UgIpLbA8geUv7lgMuGily9xfCHcM31cISXWf+XlUBBb5LvCxqKngQL0hZKu95Im5U3cWhS2Sfm0dWfPWKb6S4t5y3n5sdDuXF5fnp793r8l5+zdy2SbH1+3OzenlBfh9kVx1bshR97h9e3bzsfGavIOg+znri9wAJeTMntphQC5AAsTGwUizSR5AKYgL0XfACAxk4ysVR0JuvNsh2eucdI9uz7rkqP2BSAeDiHgwmBwOT+jBYCIfDCbKwWCiHgwm2sFgoh8MJsbBYGIeCiYH407owTh7ejDO/mC8ycE4k4PxJQfjSp7Vk3xglr9RTvsNkMq4cg2/et2bZ04fa7F4Vm9Si8Wz+vlaLJ41ZazF4lnTxVosntW512LxrJ69Fotndet1WByEch6Ebh6Eah6EZh6EYj5rrlGHxLPmGWkRFxBpn/3a/tAjl8fH5Oi017nu3nS/MSYXBNKfm9OL28vb3l5R6UzY8PNtwEad4ps4W7yKyogF/yWDJOsPzpxEboQPXJZe2wmDxeMJhBx7PmFfZg4WQMmIhZbtBMRzCbOGk6rGrwlcwiVu5MCRbd25XhDaw+D1kR3MHGve/RL61q9JQfR/c7Tfs5Anp4AV1nLfWzYinRZfsyO7SMebDgB1/tSoNyb4lOSZHYTEckfkcoAvKY/5lbyqGygmWHUmoecRx3PvgKQCGOroVbvTJce3F3HqCSpyCt+7F52zy173KHkS9ZyS7lm3Q7r/d3t69bEBnaQDv+HPeGZ9Na+616fnoF7XySM1H3q4a+TsGneNdE74rpGzzvlNs3d5e3NCfr/gnZ2GbEoc5t6Fk7d/SKL0ifyLnFtf7Gk0JWfZZfGTQD54EZlac+LiMmTokWDi+SFzSThhnM4AeuvF13A9GS8XuTKYkz/oJzKcWL41BG4HsTpZfNsEiNP+b4RvZw3IGMQeTuwgoxP6jfk4scK4Eegfl/4/ER/4gijBV9Adn80AAxj/p914QnaSyd9cl+R6vl1cXv+YurQBT/agS0e/4R4N0CD8aCU7ZFpHv7XiHTJ8jRCQ61yenoFTvzw7vXjP98/AJ4S+3lUXhsGHQv/97ub2zcl1tn8G3b7tch9OiCAIV5YfkjPPGpFj5ChqZcfzfebEGtqJ/PtYO8hb6B9HauIhi1SUpOZ197iJV67Ojo+vzq7JxAIvDQED1NrHPRoYKiIm8HHijqaJTkyjgMcSYAQuh5FhepeAcLCrt/gmWJOA/HC9U+Vd9FjI96sMS12BDuF6HZpPABcSvHFXk+1GoE45VyEYkR5ExBE+EX/NN54EOMLQcobYDmSPWrOC4YDW1gwnA+AIhk6gDLW5fXJ9SkLcvped6kBGEdp3QljCwQG+6RZ4R67Zvc0eeNsl7FPU0wCKQF33zgZV9pFV1yxZw87tAffdEFxnFEjbCbza0EmqYifvZhz5uLBJ7iLIA6DvZ2UxPjn3wuInZTE+5fLC4idlMe5Hf2Hxk7IYN4/+0CxO+jnH3eStLOb/m83TZO99u9c6bndOz05vPnxskCbnzJiTukUvMLW9uT7t3CRy2GOPJ932zfY98t/HtsMuXWe+J7qfvE/IOCFxDVK1/1jcANQ6toa2A39Av/+8saesF7LZT6+J5fjMGs1xXvyx1DVm5L9ighunsajNAy+ckHSfkMACj+dL2YVp6C+VFVBlzyGLmgB2N9YANNsHFcYOISnNtqbylJ0TG7MkU+1CLoa52zbz82Ra8ECmeHJPYfpvg43e26PIcmC0GIFiftcBAzzyGI1T55WZM1mTOVdlGVysbdtv4ma1uAAxYm4Axme7DgvJyJ83gU0DUthFCDmuA4SIpCNkO/Ar4d6SJpUFQyecWwQPMPdjZ2G7Yw9uX99eEJyGXELweE1E6Y2oElFriRSQwk85ach7RK6Di8OhLZht4rSzMFjAJ2CocTaMHMzY0AaOwl0Q3hSdSOz8noi1VdnFC2v3wtqqkPfC2r2wtnoq/cSspYIqb8daHVna5J/q98Laqlz4qVkr6YK8HWup1JJEQAo/6ffC2lqtPY4gPcDDIjHDRYZadg2zfiYU+HmDIR3D7xBS84CntjMPcoQBT0wwReap7NiHuP5m7DP2J+NCwK7LrJcEXUUJcRZuwnqtivVXfHDIPyAFCjDfxrwDRbCGnADXIloxOcAsjjT+SD9xOU2se6y3YkexntX1I5DT7P4CfYqgaXpMISF0qV9sgXv1Ca/tQkOC7+CIORg/BZc+niEQvqoSL4oEcX/yTzhJ4lVLKyAzrN1BS4uc/IYlUJsnkFk/SNzDxMYlkwApJxP7bkICsCPOOjYex0dCYr10YbDnNfRvqY2qtr020kQb6fegjYquvGjjNnnot9RGzdhYGyXpDZVL2ih/B9qovmjjdqn7t9RGc/NI/X1qo6H8jbQRS6rANy/yh/hHUmwc4ZLpmT1mnfnQYR2Qeus2YFe+PWTdYGjFJZq3oJ63Qk8g7V/eE9DR8/Pudee0fdbE9UmsxcVVLVzfcz2CC9N3c8CaL6pyKZ+GSK1jf2bOPF5hRcV78D2gLsMp4QfqaAHTYOJFzgiYHwL52IoffxFzznbJbcgVt3Vj+fZ4/MTkYuXx9OysfdMlYKw/AsXX3d7p0W377Eeh96J9c3sN5L5v934EcjuX7YMT6xZRc90Gh9oy7Rm47bxmUBkume9DJMr3CQhPg2Jtmnk4KNbmHoeDYm0h43BQrJ3dHg6Km5eDisjlyaS1mEoWs8glItKscjHzCkLwWXz5B3JBBxKs1vPK4+9I7OaT2b8BsZvPlZ6ZWE5rckhFY2yFlpOfXpFeDtg944eQpNdfJeecNPxoMO8vndoQvwBH4L9xf7Zwx0JhxMZW5ITpxu0eXMLLbjQdMN8bXzFvBlfTbd0QvgFvIBWnXsUXvFb2zV+HHPwhfsJ2Lk4VoRV/c07rD974U/yN7xZv/bHqrbCfKsY5Lbzi+YifuoLvg75GwSRj5riWXza6eS/CqHSpk2/MOOdvod7TKDg5BHVIX2Xdi/wxNMI3Wq8cAE/XE+LXLOHeVAG/J0dx9fjVY/7upXIfj3l3cuWIiente8TsUJKhN2L40m9IVPMDzrJzz+7+gwc8agJNzmzLDoDhN8CoafJmqgabFd9+VTzYkB8uqEqSIBXe1JMcjdPwgpXNJFE3BUlOj4xrDCLbGfEDaNjIBiSKrwqnkiaZqibrqqHJhp4es5q3mS63AZREVZUVSdE0qhgmnmL59dXX/wd4c5XQ"
          },
          {
            "name": "geo_city",
            "value": "Yellowknife AP"
          },
          {
            "name": "geo_province",
            "value": "NT"
          },
          {
            "name": "geo_country",
            "value": "CAN"
          },
          {
            "name": "geo_latitude_deg",
            "value": "62.463"
          },
          {
            "name": "geo_longitude_deg",
            "value": "-114.44"
          },
          {
            "name": "geo_heating_degree_days_dd",
            "value": "8170.0"
          },
          {
            "name": "geo_cooling_degree_days_dd",
            "value": "53.0"
          },
          {
            "name": "geo_necb_climate_zone",
            "value": "8"
          },
          {
            "name": "qaqc_unmet_hours_heating_hours",
            "value": "0.17"
          },
          {
            "name": "qaqc_unmet_hours_cooling_hours",
            "value": "31.0"
          },
          {
            "name": "envelope_conditioned_floor_area_m_2",
            "value": "511.1574000000001"
          },
          {
            "name": "envelope_exterior_surface_area_m_2",
            "value": "937.0966811798495"
          },
          {
            "name": "envelope_building_volume_m_3",
            "value": "2357.4440151428576"
          },
          {
            "name": "envelope_outdoor_walls_average_conductance_w_per_m_2_k",
            "value": "0.165"
          },
          {
            "name": "envelope_outdoor_roofs_average_conductance_w_per_m_2_k",
            "value": "0.11"
          },
          {
            "name": "envelope_outdoor_floors_average_conductance_w_per_m_2_k",
            "value": "0.117"
          },
          {
            "name": "envelope_ground_walls_average_conductance_w_per_m_2_k",
            "value": ""
          },
          {
            "name": "envelope_ground_roofs_average_conductance_w_per_m_2_k",
            "value": ""
          },
          {
            "name": "envelope_ground_floors_average_conductance_w_per_m_2_k",
            "value": "0.379"
          },
          {
            "name": "envelope_outdoor_windows_average_conductance_w_per_m_2_k",
            "value": "1.3"
          },
          {
            "name": "envelope_outdoor_doors_average_conductance_w_per_m_2_k",
            "value": ""
          },
          {
            "name": "envelope_outdoor_overhead_doors_average_conductance_w_per_m_2_k",
            "value": ""
          },
          {
            "name": "envelope_skylights_average_conductance_w_per_m_2_k",
            "value": ""
          },
          {
            "name": "envelope_fdwr_ratio",
            "value": "20.0"
          },
          {
            "name": "envelope_srr_ratio",
            "value": "0.0"
          },
          {
            "name": "peak_electricy_power_watts",
            "value": "40785.18"
          },
          {
            "name": "peak_natural_gas_watts",
            "value": "NA"
          }
        ],
        "step_warnings": []
      }
    }
  ],
  "updated_at": "20190221T165252Z",
  "weather_file": "dummy.epw"
}